// *******************************
// Defines Line names (Sections) for fused and regulators
New Line.6RR64__2483497 Bus1=25248743 Bus2=25792451
New Line.E0X32__2562517 Bus1=1710463 Bus2=1710464
New Line.E1668__2568994 Bus1=1585995 Bus2=1585996
New Line.EW604__2571108 Bus1=1599324 Bus2=1599325
New Line.10GG12_10J078_2581623 Bus1=26983094 Bus2=26983092
New Line.89Q18__104507897 Bus1=103462245 Bus2=103462240
New Line.E0P50_E0P51_2558661 Bus1=1708996 Bus2=1709012
New Line.E1186__2562275 Bus1=1708621 Bus2=1708622
New Line.EW269_EW273_2560716 Bus1=25794216 Bus2=25222557
New Line.EW629__2571112 Bus1=1599379 Bus2=1599380
New Line.EXF81__2586617 Bus1=25160510 Bus2=26829766
New Line.8E296__2480218 Bus1=25496447 Bus2=103120773
New Line.E0P03_E0P04_2558939 Bus1=1708761 Bus2=1708750
New Line.E3Y38_E3Y39_2560870 Bus1=26403387 Bus2=1713289
New Line.E3R76__2586691 Bus1=1586838 Bus2=26403393
New Line.EXF19_EXF47_2564817 Bus1=1729150 Bus2=1729230
New Line.6DE83_6GK07_2477599 Bus1=25719943 Bus2=26976543
New Line.E3R48__2569419 Bus1=1586742 Bus2=1586743
New Line.E3R61__2569520 Bus1=1586780 Bus2=1586782
New Line.E3Y15_E3Y20_2560881 Bus1=1713405 Bus2=1713370
New Line.EXF90__2588698 Bus1=26576684 Bus2=T5240B12_10000019
New Line.EZF00__2562828 Bus1=1709727 Bus2=1709728
New Line.EZZ26_EZZ28_2469662 Bus1=1709327 Bus2=1709334
New Line.EW624__2571678 Bus1=25116769 Bus2=1599302
New Line.E0Z59_E0Z60_2558902 Bus1=1709576 Bus2=26325337
New Line.E1038_E1039_2469128 Bus1=1713212 Bus2=1713168
New Line.E2N22__2584665 Bus1=1715712 Bus2=26173770
New Line.EZF89__2562665 Bus1=1710338 Bus2=1710339
New Line.E0V25_E0V30_2561810 Bus1=1715959 Bus2=1715950
New Line.E0V34__103666496 Bus1=1715940 Bus2=103197436
New Line.EXS22_EXS23_2560772 Bus1=1709624 Bus2=1709611
New Line.E0Z59__2587729 Bus1=1709576 Bus2=26517749
New Line.E0Z80_E0Z83_2558914 Bus1=1708991 Bus2=1708990
New Line.E2K33_E2K34_2564660 Bus1=1728805 Bus2=1728790
New Line.EZT36_EZT36_2473581 Bus1=1585968 Bus2=T5240B12_10000046
New Line.89Q22__2598032 Bus1=26981022 Bus2=25431312
New Line.E2J00__2569271 Bus1=1586961 Bus2=1586962
New Line.13LM88_13LG47_104791607 Bus1=26981034 Bus2=103574346
New Line.E0Z84_E0Z85_2558922 Bus1=1709176 Bus2=1709174
New Line.E3Y99__2563074 Bus1=1714914 Bus2=1714915
New Line.EZT20_EZT19_2473591 Bus1=1585972 Bus2=1585892
New Line.E0X16_E0X19_2560121 Bus1=1708832 Bus2=1708804
New Line.E1704_E1708_2567758 Bus1=1585819 Bus2=1585817
New Line.E8J46__2474798 Bus1=1586245 Bus2=1586246
New Line.EZZ79__2474652 Bus1=1586024 Bus2=1586025
New Line.E2M52_E2M56_2568567 Bus1=1587175 Bus2=1587029
New Line.E3W31_E3W33_2560751 Bus1=1715553 Bus2=1715622
New Line.E0Z19_E0Z18_2559284 Bus1=26400157 Bus2=1709168
New Line.E2J06__2569273 Bus1=1586986 Bus2=1586987
New Line.E2N19_E2N21_2560805 Bus1=1715705 Bus2=1715703
New Line.EW611_EW611_2569711 Bus1=1599321 Bus2=T5240B12_10000066
New Line.EZZ16_EZZ18_2469674 Bus1=26401863 Bus2=1709298
New Line.EZZ18_EZZ19_2469675 Bus1=1709298 Bus2=1709296
New Line.EZZ66_EZZ67_2473577 Bus1=1586248 Bus2=1586143
New Line.E1565_E1590_2568285 Bus1=26402844 Bus2=1586054
New Line.E3Y86_E3Y87_2560789 Bus1=1714017 Bus2=1714207
New Line.EW644_EW646_2565207 Bus1=1729120 Bus2=1729164
New Line.EXF67_127G33_2586352 Bus1=26376370 Bus2=103344436
New Line.E0X35__2562518 Bus1=1710402 Bus2=1710403
New Line.8LP26_8LP28_2576447 Bus1=26977934 Bus2=26977932
New Line.E1010__103039363 Bus1=103016080 Bus2=103016085
New Line.E1721_E1722_2567903 Bus1=1585846 Bus2=1585804
New Line.E2M88__2569318 Bus1=1587011 Bus2=1587012
New Line.EXF81_EXG09_2561845 Bus1=25160510 Bus2=1715831
New Line.EZB85_EZB89_2560115 Bus1=1709079 Bus2=1709077
New Line.E1030__2470386 Bus1=1713190 Bus2=1713191
New Line.E2J04__2569272 Bus1=1586963 Bus2=1586964
New Line.E0P04__2573311 Bus1=1708750 Bus2=25225779
New Line.E3W18__2562998 Bus1=1715558 Bus2=1715559
New Line.EW646_EW651_2565208 Bus1=1729164 Bus2=1729173
New Line.EXF46_EXF46_2569597 Bus1=1599386 Bus2=T5240B12_10000065
New Line.E0X48__2562377 Bus1=1709437 Bus2=1709438
New Line.E1641_10F196_2581477 Bus1=26402854 Bus2=25912164
New Line.E3Y42_E3Y43_2560873 Bus1=1713308 Bus2=1713307
New Line.EW267__2563014 Bus1=1709789 Bus2=1709790
New Line.EW687_EW689_2569625 Bus1=1599201 Bus2=1599472
New Line.EXS30_E8M99_2560770 Bus1=103344435 Bus2=26980926
New Line.EZF89_EZF91_2560098 Bus1=1710338 Bus2=1709674
New Line.EXF71_EXF73_2564827 Bus1=1729261 Bus2=1729259
New Line.EZZ88_EZZ90_2473366 Bus1=26976581 Bus2=26976554
New Line.EZZ93__2506981 Bus1=1586281 Bus2=26976576
New Line.E0X91_E0X92_2559298 Bus1=25872908 Bus2=1708784
New Line.E1026__2562548 Bus1=1709032 Bus2=1709033
New Line.EZF83__2562664 Bus1=1710360 Bus2=1710361
New Line.EZZ93__2506980 Bus1=26976575 Bus2=1586281
New Line.EZZ94__2506983 Bus1=26976578 Bus2=1586289
New Line.E1032__2470387 Bus1=1713185 Bus2=1713186
New Line.E1690_E1691_2567745 Bus1=26402861 Bus2=1585940
New Line.E2N91_E2N92_2568660 Bus1=1587238 Bus2=1587236
New Line.EXS97_EXS99_2560383 Bus1=1709670 Bus2=1709644
New Line.EZT29_EZT30_2473605 Bus1=1585874 Bus2=1585896
New Line.E0Z93_E0P29_2558918 Bus1=1708858 Bus2=1708853
New Line.E1624_18HQ10_106041197 Bus1=103654307 Bus2=103654304
New Line.E2K32_E2K33_2564659 Bus1=1728807 Bus2=1728805
New Line.E3Y93__2563070 Bus1=1714944 Bus2=1714945
New Line.EZZ52_EZZ53_2473775 Bus1=26401867 Bus2=1586343
New Line.E1730_E2P89_2573052 Bus1=1585792 Bus2=27143395
New Line.E2M63_11QA47_2585967 Bus1=26328210 Bus2=26979400
New Line.E3R24_E3R25_2568707 Bus1=26403406 Bus2=1586846
New Line.EXF73_EXF74_2564828 Bus1=1729259 Bus2=1729257
New Line.E1180_E1181_2568468 Bus1=1586207 Bus2=26367554
New Line.E1586_E1587_2568292 Bus1=1585771 Bus2=1585767
New Line.E2N59__2563093 Bus1=1713417 Bus2=1713418
New Line.EW266__2563013 Bus1=1709832 Bus2=1709833
New Line.EW697_EXF00_2569582 Bus1=1599391 Bus2=103172022
New Line.E0P08__2562277 Bus1=1708721 Bus2=25877542
New Line.E0P85__2561990 Bus1=1709507 Bus2=1709508
New Line.E1056__2470375 Bus1=1713148 Bus2=1713149
New Line.94M90__2598055 Bus1=25580956 Bus2=26981045
New Line.E1070__2470287 Bus1=1708695 Bus2=1708696
New Line.EXS78_EZF09_2560403 Bus1=1709630 Bus2=1709563
New Line.EZZ94__2506984 Bus1=1586289 Bus2=26976579
New Line.94M90__2598054 Bus1=26981044 Bus2=25580956
New Line.E0X49__2562378 Bus1=1709404 Bus2=1709405
New Line.E0Z18__2586623 Bus1=1709283 Bus2=26400157
New Line.E1590_E1592_2568273 Bus1=1586054 Bus2=1586051
New Line.E1662__2568992 Bus1=1586132 Bus2=1586133
New Line.EXS08_EXS10_2560721 Bus1=1709819 Bus2=1709816
New Line.E0P08_E0P09_2559290 Bus1=1708721 Bus2=25877539
New Line.E0Z28__2562261 Bus1=1709537 Bus2=1709538
New Line.E0Z52_E0Z53_2558888 Bus1=1713116 Bus2=1713114
New Line.E3Y55__2598001 Bus1=26980991 Bus2=1713248
New Line.EW264__2563012 Bus1=1709845 Bus2=1709846
New Line.E0P60__2470608 Bus1=1709188 Bus2=1709189
New Line.E0P86__2561991 Bus1=1713134 Bus2=1713135
New Line.E2N28__2583983 Bus1=1715676 Bus2=26115130
New Line.E2N73_E2N76_2560892 Bus1=1713364 Bus2=1713349
New Line.E3R80_E3R81_2568745 Bus1=1586923 Bus2=1586921
New Line.E2J99__2562992 Bus1=1715541 Bus2=1715542
New Line.E3Y97__2563073 Bus1=1714211 Bus2=1714212
New Line.122C47__2586410 Bus1=26325342 Bus2=26384682
New Line.EZZ59__2474729 Bus1=1586274 Bus2=1586275
New Line.E1033__2470388 Bus1=1713183 Bus2=1713184
New Line.E1506__2569486 Bus1=1586474 Bus2=1586475
New Line.E2N28__2583984 Bus1=1715676 Bus2=26115131
New Line.13LG43__2589951 Bus1=26682122 Bus2=26682123
New Line.E2N58__2563778 Bus1=1713372 Bus2=1713373
New Line.E3R44__2569418 Bus1=1586767 Bus2=1586768
New Line.E3W08__2563765 Bus1=1714675 Bus2=1714676
New Line.EZT60__2491099 Bus1=1708673 Bus2=26401855
New Line.E1086__2474634 Bus1=1586350 Bus2=1586351
New Line.E3W12__2562996 Bus1=1714966 Bus2=1714967
New Line.10TF49_12PP32_2587677 Bus1=25997526 Bus2=26495483
New Line.135997_135998_2588830 Bus1=26586563 Bus2=26586564
New Line.E1035__2470389 Bus1=1713181 Bus2=1713182
New Line.E3R92__2569357 Bus1=1586912 Bus2=1586913
New Line.E3Y95__2563072 Bus1=1714939 Bus2=1714940
New Line.E1602_E1603_2568276 Bus1=1586046 Bus2=1586043
New Line.E1666__2568993 Bus1=1586066 Bus2=1586067
New Line.E2N12_13LG41_2589945 Bus1=1713545 Bus2=26682115
New Line.E3W15__2562997 Bus1=1714964 Bus2=1714965
New Line.E3W35__2562987 Bus1=1715734 Bus2=1715735
New Line.EXF29_EXF30_2569595 Bus1=1599426 Bus2=1599418
New Line.E0X93_E0X96_2559300 Bus1=1708814 Bus2=1708813
New Line.118P04__2584251 Bus1=26126568 Bus2=26126569
New Line.18GJ26__105595325 Bus1=103635653 Bus2=103635654
New Line.E0X08_E0X11_2560129 Bus1=1708949 Bus2=1708924
New Line.EXH89_EXH90_2569802 Bus1=1599185 Bus2=1599105
New Line.E1082_E1083_2473347 Bus1=1586533 Bus2=1586528
New Line.E3Y94__2563071 Bus1=1714942 Bus2=1714943
New Line.EZF76_EZF78_2560088 Bus1=1710383 Bus2=1710369
New Line.6DE75_6DE76_2572428 Bus1=25078995 Bus2=25058943
New Line.7EW29__2479623 Bus1=25411737 Bus2=25411738
New Line.E0Z61_E0Z62_2559252 Bus1=1710733 Bus2=1710731
New Line.E1659_E1665_2567890 Bus1=1586071 Bus2=1586070
New Line.E1667__2568998 Bus1=1586011 Bus2=1586012
New Line.E2K12__2563593 Bus1=1713530 Bus2=1713531
New Line.E1016_E1020_2559835 Bus1=1709272 Bus2=1709354
New Line.E3R33__2569341 Bus1=1586892 Bus2=1586893
New Line.E3Y54__2563855 Bus1=1713250 Bus2=1713251
New Line.EXG80__2566669 Bus1=1729308 Bus2=1729309
New Line.122C46_14P237_2593396 Bus1=103395456 Bus2=26977925
New Line.EZT37_EZT38_2473596 Bus1=1585867 Bus2=1585866
New Line.E0P52_E0P53_2558668 Bus1=1708994 Bus2=1708993
New Line.E2K14_E2K17_2561829 Bus1=1713521 Bus2=1713519
New Line.E2M83__2569315 Bus1=1587060 Bus2=1587061
New Line.E0X93__2586620 Bus1=1708814 Bus2=26400154
New Line.E1618__2586664 Bus1=1585999 Bus2=26402853
New Line.E2J55__2598009 Bus1=26980999 Bus2=1715742
New Line.EW646_10GF24_2581592 Bus1=1729164 Bus2=25929740
New Line.EXG32_PPJ33_2561854 Bus1=1715774 Bus2=1715773
New Line.EZZ59_EZZ60_2473568 Bus1=1586274 Bus2=1586276
New Line.6RR65__2478372 Bus1=25248745 Bus2=25794278
New Line.E1128_E1130_2473356 Bus1=1586406 Bus2=1586396
New Line.E2J58__2562857 Bus1=1713560 Bus2=25631891
New Line.E2J59_E2J62_2560421 Bus1=26980998 Bus2=26980996
New Line.E3R31__2569340 Bus1=1586868 Bus2=1586869
New Line.E0P69__2470609 Bus1=1709198 Bus2=1709199
New Line.E0Z48__2562092 Bus1=1713098 Bus2=1713099
New Line.E3R36__2569342 Bus1=1586799 Bus2=1586800
New Line.E1120_E1121_2473224 Bus1=1586412 Bus2=1586410
New Line.E2J70__2598015 Bus1=26981005 Bus2=1713554
New Line.E2M80__2569314 Bus1=1587051 Bus2=1587052
New Line.E2N47_E2N50_2560822 Bus1=1715670 Bus2=1715531
New Line.E8Q14_E8Q21_2569626 Bus1=26983111 Bus2=26981048
New Line.E0Z76_FWC31_2558923 Bus1=1708927 Bus2=1708940
New Line.E1159_E1163_2568381 Bus1=1586598 Bus2=1586597
New Line.E1546_E1548_2568127 Bus1=1586199 Bus2=1586186
New Line.E2N21__2583982 Bus1=1715703 Bus2=26115129
New Line.E3R51_E3R53_2568876 Bus1=1586734 Bus2=1586732
New Line.E3Y63__2586680 Bus1=1587217 Bus2=26403382
New Line.E1728_E1730_2567907 Bus1=1585794 Bus2=1585792
New Line.EW696_EW697_2569581 Bus1=1599393 Bus2=1599391
New Line.EZZ11__2470622 Bus1=1708646 Bus2=1708648
New Line.E1618__2586663 Bus1=1585999 Bus2=26402852
New Line.EZF52__103037831 Bus1=103015354 Bus2=1709356
New Line.EZT85__2491105 Bus1=1586556 Bus2=26401861
New Line.E2M26__2569300 Bus1=1587090 Bus2=1587091
New Line.EW246__2562960 Bus1=1709963 Bus2=1709964
New Line.EZT85__2491104 Bus1=1586556 Bus2=26401860
New Line.6GK07__2506949 Bus1=25180334 Bus2=26976544
New Line.6GK07__2506948 Bus1=26976543 Bus2=25180334
New Line.E2K17__2563595 Bus1=1713519 Bus2=1713520
New Line.E2N21_E2N22_2560807 Bus1=26115129 Bus2=1715712
New Line.EXF07_EXF09_2569586 Bus1=1599464 Bus2=1599462
New Line.E2J59__2598008 Bus1=1715745 Bus2=26980998
New Line.EXH02_EXH05_2569844 Bus1=1598891 Bus2=1598931
New Line.E0X30_E0X31_2559801 Bus1=103016099 Bus2=1710468
New Line.E0Z15__2586622 Bus1=1709169 Bus2=26400156
New Line.E2K16__2563594 Bus1=1713516 Bus2=1713517
New Line.E2M49__2575505 Bus1=1587173 Bus2=T5240B12_10000014
New Line.EZZ87_EZZ88_2473365 Bus1=26976553 Bus2=26976580
New Line.FWA50_E8J18_2473216 Bus1=1586429 Bus2=1586427
New Line.E2M87__2569317 Bus1=1587013 Bus2=1587014
New Line.E0Z24__2562262 Bus1=1709383 Bus2=1709384
New Line.EZB21__2590398 Bus1=1710345 Bus2=26751446
New Line.EZZ67_EZZ69_2473585 Bus1=1586143 Bus2=1586142
New Line.E2N76_E2N77_2560893 Bus1=1713349 Bus2=1713339
New Line.EXS72__2562824 Bus1=1709721 Bus2=1709722
New Line.EZZ16__2470623 Bus1=1708687 Bus2=1708688
New Line.127G34__2586364 Bus1=26376695 Bus2=26376696
New Line.17BN16__105593519 Bus1=103362831 Bus2=103634897
New Line.E0P58_E0P59_2469697 Bus1=26401832 Bus2=1709203
New Line.E2M84__2569316 Bus1=1587058 Bus2=1587059
New Line.E2M95_E3R01_2568680 Bus1=1586950 Bus2=1586940
New Line.E2N58_E2N59_2560907 Bus1=1713373 Bus2=26980995
New Line.152J55__103161240 Bus1=152J55_103161240 Bus2=103064666
New Line.18GJ19_18GJ21_105595293 Bus1=103635677 Bus2=103635644
New Line.E3R95__2569358 Bus1=1586910 Bus2=1586911
New Line.E0X40_E0X42_2559822 Bus1=1709518 Bus2=1709569
New Line.EZZ94_EZZ93_2473370 Bus1=26976579 Bus2=26976575
New Line.12ME41_E3R04_2587496 Bus1=26473887 Bus2=1586883
New Line.18GJ26_EZZ03_105595324 Bus1=103635654 Bus2=103663595
New Line.E1134_E1135_2559842 Bus1=1708926 Bus2=1708903
New Line.83D83__2506974 Bus1=25460541 Bus2=26976569
New Line.E2J95__2562990 Bus1=1715519 Bus2=1715520
New Line.EZB41__2562527 Bus1=1710448 Bus2=1710449
New Line.E2J59__2598007 Bus1=26980997 Bus2=1715745
New Line.E2N59__2598005 Bus1=26980995 Bus2=1713417
New Line.E8F49_E8Q14_2573477 Bus1=26983108 Bus2=26983112
New Line.E0V48__2563612 Bus1=1715804 Bus2=1715805
New Line.E1692_E1697_2567752 Bus1=1585889 Bus2=1585849
New Line.E2K42_182H34_104894846 Bus1=1713913 Bus2=103610803
New Line.E0Z95_10FR37_2558926 Bus1=1708803 Bus2=25920087
New Line.E1579_E1580_2568157 Bus1=1585784 Bus2=1585782
New Line.EW604_EW606_2569709 Bus1=1599324 Bus2=1599322
New Line.EZB36_EZB37_2559805 Bus1=1710433 Bus2=1710427
New Line.EZT51_EZT55_2469686 Bus1=26401854 Bus2=1709319
New Line.15NN58__103861039 Bus1=103251689 Bus2=103261115
New Line.91T05__2598059 Bus1=26981049 Bus2=25607372
New Line.E2K84_E2K85_2560853 Bus1=1713443 Bus2=1713421
New Line.E2M13_E2M14_2568647 Bus1=E2M13_104080657 Bus2=1587101
New Line.E2N66_10L550_2582440 Bus1=25984423 Bus2=26981020
New Line.E1660__2569471 Bus1=1586080 Bus2=1586081
New Line.E2J97__2562991 Bus1=1715543 Bus2=1715544
New Line.EZZ34_EZT50_2469681 Bus1=26433248 Bus2=1708677
New Line.E0Z55_E0Z56_2558890 Bus1=1713113 Bus2=1713112
New Line.EXS76__2562825 Bus1=1709668 Bus2=1709669
New Line.EZB05_EZB06_2560454 Bus1=103015371 Bus2=1709395
New Line.83D83__2506973 Bus1=26976568 Bus2=25460541
New Line.E2K79__2563083 Bus1=1713422 Bus2=1713423
New Line.EZB46__2562529 Bus1=1710459 Bus2=1710460
New Line.94M90_94M89_2577297 Bus1=26981047 Bus2=26981044
New Line.E2J51__2562856 Bus1=1713495 Bus2=1713496
New Line.E3R40_E3R55_2568724 Bus1=1586791 Bus2=1586788
New Line.E3Y46_E3Y48_2568666 Bus1=26403384 Bus2=1587222
New Line.E0V28__2563580 Bus1=1715955 Bus2=1715956
New Line.E2K78__2563082 Bus1=1713424 Bus2=1713425
New Line.E3Y63_E3Y64_2568668 Bus1=26403381 Bus2=1587215
New Line.EZB73_EZB70_2560112 Bus1=26400494 Bus2=25017648
New Line.E0X67_153D90_103146427 Bus1=103060499 Bus2=103060502
New Line.E2J79__104018897 Bus1=1713979 Bus2=T5240B12_10000030
New Line.E2M81_E2M82_2568692 Bus1=1587049 Bus2=1587081
New Line.EZB01_EZB04_2560427 Bus1=1709428 Bus2=1709525
New Line.182H32_E2J73_104894839 Bus1=103610798 Bus2=1713899
New Line.E2N56_E2N57_2560837 Bus1=1713429 Bus2=1713407
New Line.EZZ25_EZZ26_2469677 Bus1=1709295 Bus2=1709327
New Line.E1076_E1080_2473344 Bus1=1586590 Bus2=1586582
New Line.E1132__2562549 Bus1=1708969 Bus2=1708970
New Line.EZB44__2562528 Bus1=1710438 Bus2=1710439
New Line.83D87__2506975 Bus1=25460542 Bus2=26976570
New Line.E3Y54_E3Y55_2561865 Bus1=1713251 Bus2=26980991
New Line.EZB24__2562519 Bus1=1710387 Bus2=1710388
New Line.83D87__2506976 Bus1=26976571 Bus2=25460542
New Line.EXF96__104872255 Bus1=1729302 Bus2=103612991
New Line.E0P24__2562103 Bus1=1708819 Bus2=1708820
New Line.E0Z60__2585962 Bus1=26325337 Bus2=26325341
New Line.EZZ19__2470624 Bus1=1709296 Bus2=1709297
New Line.E0Z45__2562090 Bus1=1709445 Bus2=1709446
New Line.E3Y81__2563609 Bus1=1713237 Bus2=1713238
New Line.E0X08__2562675 Bus1=1708949 Bus2=1708950
New Line.E2N32_E2N36_2560815 Bus1=1715628 Bus2=1715536
New Line.18GJ21_18GJ22_105595296 Bus1=103635644 Bus2=103635645
New Line.E0Z32_E0Z37_2558895 Bus1=1709594 Bus2=1709593
New Line.EXH87_EXH89_2569734 Bus1=1599240 Bus2=1599185
New Line.127G34__2600105 Bus1=26983095 Bus2=26376695
New Line.E3W02_E3W03_2561626 Bus1=1714658 Bus2=25116208
New Line.EZF79_EZF83_2560090 Bus1=1710367 Bus2=1710360
New Line.127G34__2600106 Bus1=26376695 Bus2=26983096
New Line.E0Z24__2594943 Bus1=26977923 Bus2=1709383
New Line.E1607_E1608_2568283 Bus1=1585978 Bus2=1585951
New Line.E1614__2586661 Bus1=1586031 Bus2=26402850
New Line.EXS12_EXS14_2560731 Bus1=1709804 Bus2=1709740
New Line.120337__2585786 Bus1=26311655 Bus2=26311656
New Line.E1614__2586662 Bus1=1586031 Bus2=26402851
New Line.EZB81_EZB84_2560128 Bus1=1709076 Bus2=1709074
New Line.E0Z47__2562091 Bus1=1709588 Bus2=1709589
New Line.E2N85__2569514 Bus1=1587234 Bus2=1587235
New Line.E3R36_E3R39_2568717 Bus1=1586799 Bus2=1586797
New Line.EW610_EW614_2569714 Bus1=1599321 Bus2=1599309
New Line.E1567_E1568_2568268 Bus1=1585985 Bus2=1585907
New Line.EXS02__2563621 Bus1=1709830 Bus2=25805548
New Line.EZT78_EZT79_2473342 Bus1=1586583 Bus2=1586552
New Line.15L334__103737777 Bus1=103218191 Bus2=103240879
New Line.EXF22__2566677 Bus1=1729137 Bus2=1729138
New Line.EZB67_EZB68_2559828 Bus1=1709275 Bus2=1709243
New Line.18GJ59_18GL01_105595339 Bus1=103635659 Bus2=103635658
New Line.EXF41__2566681 Bus1=1729146 Bus2=1729147
New Line.EXG22_EXG27_2561850 Bus1=1715806 Bus2=1715787
New Line.EW631_EW633_2569729 Bus1=1599377 Bus2=1599375
New Line.E0Z87_E0Z90_2558916 Bus1=1708953 Bus2=1708944
New Line.E1014_E1022_2559833 Bus1=1709229 Bus2=1709227
New Line.EW637__2571114 Bus1=1599371 Bus2=1599372
New Line.EXF20__2566675 Bus1=1729148 Bus2=1729149
New Line.E0X76_E0X80_2559554 Bus1=1709055 Bus2=1708982
New Line.E1695_E1696_2567762 Bus1=1585848 Bus2=1585824
New Line.E2K34_E2K35_2564661 Bus1=1728790 Bus2=1728479
New Line.E2K73_E2K78_2560840 Bus1=1713414 Bus2=1713424
New Line.EXS61_EXS61_2560415 Bus1=1709626 Bus2=T5240B12_10000056
New Line.E3W03__2563486 Bus1=25116208 Bus2=1714192
New Line.EXS40_EXS42_2560385 Bus1=1710201 Bus2=1710203
New Line.E2J18__2569278 Bus1=1586685 Bus2=1586686
New Line.EXS54_EXS55_2560412 Bus1=1709666 Bus2=1709621
New Line.EZZ58_EZZ59_2473774 Bus1=1586270 Bus2=1586274
New Line.14NX87__2593679 Bus1=26915030 Bus2=26915031
New Line.EXF21__2566676 Bus1=1729215 Bus2=1729216
New Line.10GF24_10J078_2581621 Bus1=25929746 Bus2=26983093
New Line.159K06__103246400 Bus1=103085628 Bus2=103085629
New Line.E0Z04_E0Z06_2559271 Bus1=1708883 Bus2=1708916
New Line.E1572_E1573_2568150 Bus1=1585913 Bus2=1585918
New Line.EXF43__2566682 Bus1=1729139 Bus2=1729140
New Line.EZZ86__2474913 Bus1=1586316 Bus2=1586318
New Line.E0P45__2563653 Bus1=1708877 Bus2=103016334
New Line.E0X02__2562674 Bus1=1708980 Bus2=1708981
New Line.EZZ86__2474912 Bus1=1586316 Bus2=1586317
New Line.E3R40__2586693 Bus1=1586791 Bus2=26403404
New Line.EXS92_EXS95_2560422 Bus1=1709551 Bus2=1709554
New Line.E0X01__2562673 Bus1=1709026 Bus2=1709027
New Line.15L334__103737778 Bus1=103218190 Bus2=103218191
New Line.EXF10_EXF13_2569588 Bus1=1599460 Bus2=1599458
New Line.E0Z39__2593676 Bus1=26915027 Bus2=26915029
New Line.E1555_E1557_2568130 Bus1=26402842 Bus2=1586149
New Line.EXF04_EXF05_2569584 Bus1=1599468 Bus2=1599466
New Line.EXF86_EXF91_2564798 Bus1=1729317 Bus2=1729315
New Line.EXF86__2566666 Bus1=1729317 Bus2=1729318
New Line.EZB04_EZB05_2560428 Bus1=103015372 Bus2=1709428
New Line.E1688__103735593 Bus1=1585943 Bus2=103218189
New Line.E3Y50_E3Y51_2568665 Bus1=26403383 Bus2=1587196
New Line.E2M02_E2M04_2568550 Bus1=1587191 Bus2=1587189
New Line.EXF85_117H84_2564796 Bus1=26085025 Bus2=1729320
New Line.E0P76_E0P79_2469654 Bus1=1709467 Bus2=1709460
New Line.E2K06_E2K07_2561698 Bus1=1713826 Bus2=1713834
New Line.E2K39_E2K40_2561831 Bus1=1713451 Bus2=1713454
New Line.E3Y43_E3Y46_2560874 Bus1=1713307 Bus2=1587228
New Line.EW635__2571113 Bus1=1599373 Bus2=1599374
New Line.EXH74_EXH76_2569816 Bus1=1599078 Bus2=1599093
New Line.E0X82_E0X83_2559558 Bus1=1708952 Bus2=1708978
New Line.E1191__2562276 Bus1=25017647 Bus2=1708614
New Line.E2K99_E2N12_2560861 Bus1=1713542 Bus2=1713545
New Line.EZB68_EZB70_2559829 Bus1=1709243 Bus2=1709146
New Line.EZZ63_EZZ64_2473572 Bus1=1586251 Bus2=1586250
New Line.E0X43_E0X45_2559821 Bus1=1709456 Bus2=1709433
New Line.EW692_EW696_2569580 Bus1=1599395 Bus2=1599393
New Line.14JE80__2498146 Bus1=26873583 Bus2=26873585
New Line.E0P20_E0P21_2558938 Bus1=1708790 Bus2=1708815
New Line.E0V03_E0V05_2561824 Bus1=1715867 Bus2=1715865
New Line.E1090_E1091_2473197 Bus1=1586657 Bus2=1586436
New Line.E2N41_EXS83_2560819 Bus1=1715685 Bus2=1715684
New Line.E2K23_E2K26_2561755 Bus1=1713509 Bus2=1713502
New Line.E2K74__2563080 Bus1=1713438 Bus2=1713439
New Line.EXG79_EXG78_2564811 Bus1=1715837 Bus2=1729314
New Line.EXF47__2566683 Bus1=1729230 Bus2=1729231
New Line.EZT77_EZT78_2473341 Bus1=26401859 Bus2=1586583
New Line.130C76_130C77_2492963 Bus1=26548698 Bus2=26548699
New Line.EW639__2571115 Bus1=1599369 Bus2=1599370
New Line.EXG64__106400536 Bus1=1715976 Bus2=103671708
New Line.17MD53_E2J06_104331132 Bus1=103393476 Bus2=1586986
New Line.E3R65_E3R65_2568733 Bus1=25153937 Bus2=T5240B12_10000063
New Line.E8P46_101L69_2580065 Bus1=1715797 Bus2=26981014
New Line.EW646__2566881 Bus1=1729164 Bus2=1729165
New Line.116E44__2583547 Bus1=26085028 Bus2=T5240B12_10000037
New Line.E0X42__2562537 Bus1=1709569 Bus2=26303498
New Line.E0X60_17T647_2559550 Bus1=1709278 Bus2=103445928
New Line.E0X72_E0X73_2559549 Bus1=1709245 Bus2=1709158
New Line.13RQ99_13RQ98_2590037 Bus1=103395044 Bus2=26979391
New Line.E2K52_E2K50_104894382 Bus1=103610792 Bus2=1713880
New Line.EW614__2571109 Bus1=1599309 Bus2=1599311
New Line.EXG35_EXG36_2568867 Bus1=1587292 Bus2=1587289
New Line.E3X88__2563566 Bus1=1713946 Bus2=1713947
New Line.EW678__2571171 Bus1=1599183 Bus2=1599184
New Line.EXF00__103581833 Bus1=103172022 Bus2=T5240B12_10000025
New Line.EZT85_EZT87_2473337 Bus1=26401861 Bus2=1586554
New Line.12H032_12H033_2587105 Bus1=26437941 Bus2=26437942
New Line.E2K76__2563081 Bus1=1713436 Bus2=26810260
New Line.EZT51_EZT52_2469685 Bus1=26401853 Bus2=1709321
New Line.EZZ45_14D349_2497466 Bus1=26669664 Bus2=26833777
New Line.EZZ48_EZZ49_2473762 Bus1=1586498 Bus2=1586482
New Line.18GJ22_18GJ24_105595396 Bus1=103635645 Bus2=103635652
New Line.E1613_E1614_2568387 Bus1=1586035 Bus2=1586031
New Line.E2K73_E2K74_2560855 Bus1=103015261 Bus2=1713438
New Line.EZT87__2474630 Bus1=1586554 Bus2=1586555
New Line.E1168__2590041 Bus1=1586509 Bus2=26725379
New Line.EXG29_EXG30_2561852 Bus1=26409652 Bus2=1715777
New Line.13LG42__2598034 Bus1=26682117 Bus2=26981024
New Line.E1539_E1540_2568117 Bus1=1586255 Bus2=1586253
New Line.E0X34_E0X34_2559802 Bus1=1710468 Bus2=T5240B12_10000051
New Line.E1011_E1013_2559831 Bus1=1709232 Bus2=1709231
New Line.E8L02_E8L03_2568696 Bus1=1586945 Bus2=1586937
New Line.E2J90_E2J93_2560788 Bus1=1714958 Bus2=1715510
New Line.E0V14_E0V15_2561802 Bus1=1715974 Bus2=1715972
New Line.E1549__2586651 Bus1=1586185 Bus2=26402840
New Line.E1575_E1577_2568153 Bus1=1585911 Bus2=1585845
New Line.115N60__2583468 Bus1=26069771 Bus2=103525865
New Line.E1549__2586650 Bus1=1586185 Bus2=26402839
New Line.EZZ87__2474639 Bus1=1586314 Bus2=1586315
New Line.15KD14__103737424 Bus1=103218089 Bus2=103397864
New Line.88427_8QG20_2576605 Bus1=25504842 Bus2=26981016
New Line.EW273__2563016 Bus1=25794216 Bus2=1715610
New Line.EXH84__104781032 Bus1=1599255 Bus2=103570117
New Line.EXS30__104180229 Bus1=1709874 Bus2=103344435
New Line.EXT83_E3R71_2568884 Bus1=1586725 Bus2=1586714
New Line.13LG42__2598033 Bus1=26981023 Bus2=26682117
New Line.E0P65_E0P66_2469659 Bus1=1709202 Bus2=1709284
New Line.E2N94__2569311 Bus1=1587258 Bus2=1587259
New Line.E3W35_E3W33_2560773 Bus1=1715623 Bus2=26980939
New Line.EXF74_EXF79_2564860 Bus1=1729257 Bus2=1700276
New Line.E0X96_E0X97_2559302 Bus1=1708813 Bus2=1708837
New Line.E0P90__2561994 Bus1=1713128 Bus2=1713129
New Line.110D59__2596408 Bus1=26979398 Bus2=26025391
New Line.E0X76_9GN40_2578356 Bus1=1709055 Bus2=25688161
New Line.17GB00__104237952 Bus1=103366548 Bus2=103366549
New Line.E0P73__2470602 Bus1=1709389 Bus2=1709390
New Line.E1652_E1653_2567885 Bus1=1586086 Bus2=1586082
New Line.E2J11__2569276 Bus1=1586701 Bus2=1586702
New Line.EXG22_88427_2575886 Bus1=103135192 Bus2=25504841
New Line.E1671__2568995 Bus1=1586106 Bus2=1586107
New Line.E0P91__2561993 Bus1=1713121 Bus2=1713122
New Line.EXF79_EXF80_2561843 Bus1=1700276 Bus2=EXF80_2573355
New Line.EZT89__2474631 Bus1=1586536 Bus2=1586537
New Line.10GF24_10GG12_2581615 Bus1=25929742 Bus2=26983091
New Line.E0X45__2562538 Bus1=1709433 Bus2=1709434
New Line.8HK82_E1501_2577391 Bus1=26341932 Bus2=1586524
New Line.E0X39_E0X40_2559817 Bus1=1709534 Bus2=1709517
New Line.E0X58_E0X58_2559541 Bus1=1709375 Bus2=T5240B12_10000048
New Line.EXH05_EXH70_2569742 Bus1=1598931 Bus2=1598938
New Line.EZT44__2474736 Bus1=1585857 Bus2=1585858
New Line.181931_EXF67_104627924 Bus1=103510256 Bus2=1729266
New Line.EXH86_EXH87_2569713 Bus1=1599254 Bus2=1599240
New Line.EZB95_EZB97_2560124 Bus1=1708973 Bus2=1708899
New Line.E1103__2492916 Bus1=1586653 Bus2=26542791
New Line.E1192__2569485 Bus1=1586601 Bus2=1586602
New Line.EXH91_EXH92_2569804 Bus1=1599095 Bus2=1599085
New Line.EZB05_EZB07_2560431 Bus1=1709357 Bus2=103015359
New Line.E0P71__2470601 Bus1=1709336 Bus2=1709337
New Line.E1700__2586674 Bus1=1585829 Bus2=26402863
New Line.E2N66__2582441 Bus1=1713382 Bus2=25984423
New Line.E3R99_17X579_2568595 Bus1=1586705 Bus2=103512354
New Line.EZZ47_EZZ48_2473761 Bus1=1586570 Bus2=1586498
New Line.13R714__2591305 Bus1=26767615 Bus2=T5240B12_10000040
New Line.FWA49_FWA50_2473215 Bus1=1586430 Bus2=1586429
New Line.E0V34__103666497 Bus1=1715940 Bus2=103197438
New Line.E3R58_E3R72_2568735 Bus1=26403403 Bus2=1586806
New Line.E3R68__2569351 Bus1=25153936 Bus2=1586716
New Line.E1063__2470391 Bus1=1713196 Bus2=T5240B12_10000009
New Line.EZT07__2474799 Bus1=1586137 Bus2=1586138
New Line.126797__2586281 Bus1=26365187 Bus2=26365189
New Line.18CW62__106095008 Bus1=103655594 Bus2=103655595
New Line.E2M93__2569517 Bus1=1586996 Bus2=1586997
New Line.E3Y52_E3Y54_2560908 Bus1=1713259 Bus2=1713250
New Line.10F196__2581478 Bus1=25912164 Bus2=25912165
New Line.12JB48__2594956 Bus1=26977936 Bus2=26447764
New Line.E1515__2569487 Bus1=1586477 Bus2=1586478
New Line.E1645_E1648_2568139 Bus1=1586119 Bus2=1586078
New Line.EXF95_EXF96_2564801 Bus1=1729304 Bus2=1729302
New Line.10N883__2596389 Bus1=25948597 Bus2=26979379
New Line.E0P76__2470604 Bus1=1709467 Bus2=1709468
New Line.E2J15__2569277 Bus1=1586697 Bus2=1586698
New Line.E3W48_E3W49_2560758 Bus1=1715606 Bus2=1715730
New Line.EZZ87__2506957 Bus1=26976552 Bus2=1586314
New Line.E1614_E1617_2568397 Bus1=26402851 Bus2=1585956
New Line.6DE75_E2J04_2572427 Bus1=25078995 Bus2=1586963
New Line.E1048_E1058_2469139 Bus1=26401843 Bus2=1709478
New Line.E1535__2569490 Bus1=25173282 Bus2=1586325
New Line.EXS08__2563022 Bus1=1709819 Bus2=1709820
New Line.E2N73_E2N74_2560898 Bus1=1713365 Bus2=1713362
New Line.EW606_EW610_2569710 Bus1=1599322 Bus2=1599321
New Line.EZZ55_83D83_2480075 Bus1=103345728 Bus2=26976568
New Line.89Q22__2575981 Bus1=25431312 Bus2=T5240B12_10000033
New Line.E0P75__2470603 Bus1=1709385 Bus2=1709386
New Line.E0P84_E0P86_2558654 Bus1=1713142 Bus2=1713134
New Line.E1045__2470380 Bus1=1713210 Bus2=1713211
New Line.E1502_E1503_2568104 Bus1=1586523 Bus2=1586522
New Line.E2M61__103604262 Bus1=1587031 Bus2=103178320
New Line.E3R29__2569339 Bus1=1586812 Bus2=1586813
New Line.EZF91__2562666 Bus1=1709674 Bus2=1709675
New Line.10N884__2596391 Bus1=25948602 Bus2=26979381
New Line.12W992__2600083 Bus1=26983073 Bus2=26530899
New Line.10N884__2596392 Bus1=26979382 Bus2=25948602
New Line.E2K63__2563598 Bus1=1713524 Bus2=1713525
New Line.E1151_17WH51_104668631 Bus1=103525992 Bus2=103525987
New Line.E2N28__2563054 Bus1=1715676 Bus2=1715677
New Line.EZZ87__2506958 Bus1=1586314 Bus2=26976553
New Line.18CW62__106095006 Bus1=103655593 Bus2=103655594
New Line.E0P73_E0P75_2469653 Bus1=26401835 Bus2=1709385
New Line.E0X49_E0X52_2559538 Bus1=1709404 Bus2=1709378
New Line.E2J88__2563040 Bus1=1714922 Bus2=1714923
New Line.E2M92__2569319 Bus1=1587008 Bus2=1587009
New Line.E2M96__2569516 Bus1=1586948 Bus2=1586949
New Line.E1515__2569489 Bus1=1586477 Bus2=1586480
New Line.E1739_PFY36_2568260 Bus1=103396274 Bus2=26979392
New Line.E3R23__2569334 Bus1=1586820 Bus2=1586821
New Line.E1515__2569488 Bus1=1586477 Bus2=25138752
New Line.E1739__2569130 Bus1=1586448 Bus2=26592483
New Line.E2N39_E2N40_2560817 Bus1=1715674 Bus2=1715687
New Line.E3Y88_E3Y90_2560795 Bus1=1714205 Bus2=1714673
New Line.E1574_E1575_2568152 Bus1=1585917 Bus2=1585911
New Line.E2M99__2593715 Bus1=1586946 Bus2=26915779
New Line.E3R02__2569327 Bus1=1586905 Bus2=1586906
New Line.E3R69_EXT83_2568877 Bus1=1586712 Bus2=1586725
New Line.EXS27_EXS31_2560723 Bus1=1709811 Bus2=1709881
New Line.EZF16_EZF22_2560437 Bus1=1709400 Bus2=1709372
New Line.E2M14__2569513 Bus1=1587101 Bus2=1587102
New Line.183J09__104746872 Bus1=103557765 Bus2=103557761
New Line.E3R01__2569326 Bus1=1586940 Bus2=1586941
New Line.E3W38_E3W40_2560753 Bus1=1715602 Bus2=1715732
New Line.11QA47__2585969 Bus1=26328209 Bus2=T5240B12_10000039
New Line.E0P79__2470605 Bus1=1709460 Bus2=1709461
New Line.EZF41_EZF44_2560464 Bus1=1709089 Bus2=1709097
New Line.E1579__2575843 Bus1=1585784 Bus2=25422963
New Line.E2J11_E3R97_2568596 Bus1=1586671 Bus2=1586701
New Line.E8H43__2563599 Bus1=1715893 Bus2=1715894
New Line.122C43__104336581 Bus1=103395427 Bus2=103395429
New Line.183J09__104746871 Bus1=103557761 Bus2=T5240B12_10000043
New Line.E0P59_E0P60_2469658 Bus1=1709203 Bus2=1709188
New Line.E1140_E1141_2559569 Bus1=1708754 Bus2=1708739