New Line.254406288 Phases= 1 Bus1=254406245.3     Bus2=254406290.3     Length=35.97  units=m  Spacing=VERTICAL-1-PH-60-1PH wires=['1/0-ACSR-B-6X1' '1/0-ACSR-B-6X1']
