New Line.254406288 Phases= 1 Bus1=254406245.3     Bus2=254406290.3     Length=35.97  units=m  Spacing=VERTICAL-1-PH-60-1PH wires=['1/0-ACSR-B-6X1' '1/0-ACSR-B-6X1']
New Line.259553528 Phases= 1 Bus1=259553529.2     Bus2=254412913.2     Length=98.50  units=m  Spacing=VERTICAL-1-PH-60-1PH wires=['2-ACSR-B-6X1' '2-ACSR-B-6X1']
New Line.695104861 Phases= 1 Bus1=254427015.1     Bus2=695104859.1     Length=45.68  units=m  Spacing=VERTICAL-1-PH-60-1PH wires=['2-ACSR-B-6X1' '2-ACSR-B-6X1']
New Line.254412321 Phases= 1 Bus1=254412318.2     Bus2=254412323.2     Length=120.80 units=m  Spacing=VERTICAL-1-PH-60-1PH wires=['2-ACSR-B-6X1' '2-ACSR-B-6X1']
New Line.695134878 Phases= 3 Bus1=695134869.1.2.3 Bus2=695134876.1.2.3 Length=42.16  units=m  Spacing=8'-ARM-NON-CENTER-POST-3PH wires=['336-ACSR-B-18X1' '336-ACSR-B-18X1' '336-ACSR-B-18X1' '1/0-ACSR-B-6X1']
New Line.262285231 Bus1=254413120.1.2.3 Bus2=262285233.1.2.3 LineCode=1/0-AL-HMWPECN-25KV Phases= 3 Length=1.53   units=m enable=yes
New Line.709190196 Phases= 1 Bus1=709190193.3     Bus2=254421156.3     Length=37.38  units=m  Spacing=VERTICAL-1-PH-60-1PH wires=['4-ACSR-B-6X1' '4-ACSR-B-6X1']
New Line.705407903 Phases= 1 Bus1=705407900.1     Bus2=254413160.1     Length=126.90 units=m  Spacing=VERTICAL-1-PH-60-1PH wires=['2-ACSR-B-6X1' '2-ACSR-B-6X1']
New Line.624622415 Phases= 3 Bus1=624622412.1.2.3 Bus2=254399468.1.2.3 Length=29.94  units=m  Spacing=8'-ARM-NON-CENTER-POST-3PH wires=['336-ACSR-B-18X1' '336-ACSR-B-18X1' '336-ACSR-B-18X1' '1/0-ACSR-B-6X1']
New Line.709190026 Phases= 1 Bus1=254413240.1     Bus2=709190024.1     Length=30.67  units=m  Spacing=VERTICAL-1-PH-104-1PH wires=['2-ACSR-B-6X1' '2-ACSR-B-6X1']
New Line.262287117 Phases= 3 Bus1=262287114.1.2.3 Bus2=254420563.1.2.3 Length=127.30 units=m  Spacing=8'-ARM-NON-CENTER-POST-3PH wires=['2-ACSR-B-6X1' '2-ACSR-B-6X1' '2-ACSR-B-6X1' '2-ACSR-B-6X1']
New Line.254405951 Phases= 1 Bus1=254405948.2     Bus2=254405953.2     Length=104.00 units=m  Spacing=VERTICAL-1-PH-60-1PH wires=['1/0-ACSR-B-6X1' '1/0-ACSR-B-6X1']
New Line.695134819 Phases= 3 Bus1=254399442.1.2.3 Bus2=695134817.1.2.3 Length=49.17  units=m  Spacing=8'-ARM-NON-CENTER-POST-3PH wires=['336-ACSR-B-18X1' '336-ACSR-B-18X1' '336-ACSR-B-18X1' '1/0-ACSR-B-6X1']
New Line.705407410 Phases= 3 Bus1=705407407.1.2.3 Bus2=259424004.1.2.3 Length=80.73  units=m  Spacing=8'-ARM-STANDARD-3PH wires=['1/0-ACSR-B-6X1' '1/0-ACSR-B-6X1' '1/0-ACSR-B-6X1' '1/0-ACSR-B-6X1']
New Line.262285019 Bus1=262285016.3     Bus2=260111218.3     LineCode=1/0-AL-HMWPECN-25KV Phases= 1 Length=121.60 units=m enable=yes
New Line.254405996 Phases= 1 Bus1=254405953.2     Bus2=254405998.2     Length=44.22  units=m  Spacing=VERTICAL-1-PH-60-1PH wires=['1/0-ACSR-B-6X1' '1/0-ACSR-B-6X1']
New Line.262288983 Bus1=262288980.1     Bus2=260113598.1     LineCode=1/0-AL-HMWPECN-25KV Phases= 1 Length=101.00 units=m enable=yes
New Line.260979188 Bus1=260979189.2     Bus2=260979190.2     LineCode=1/0-AL-HMWPECN-25KV Phases= 1 Length=137.70 units=m enable=yes
New Line.262283715 Phases= 1 Bus1=254406673.3     Bus2=262283717.3     Length=1.52   units=m  Spacing=VERTICAL-1-PH-60-1PH wires=['2-ACSR-B-6X1' '2-ACSR-B-6X1']
New Line.254420617 Phases= 2 Bus1=254420599.2.3   Bus2=254420619.2.3   Length=59.92  units=m  Spacing=8'-ARM-STANDARD-2PH wires=['2-ACSR-B-6X1' '2-ACSR-B-6X1' '2-ACSR-B-6X1']
New Line.709189283 Phases= 1 Bus1=709189280.2     Bus2=254420162.2     Length=84.71  units=m  Spacing=VERTICAL-1-PH-60-1PH wires=['1/0-ACSR-B-6X1' '1/0-ACSR-B-6X1']
New Line.260979253 Bus1=260979250.2     Bus2=260979255.2     LineCode=1/0-AL-HMWPECN-25KV Phases= 1 Length=144.20 units=m enable=yes
New Line.709189617 Phases= 3 Bus1=709189614.1.2.3 Bus2=254420436.1.2.3 Length=19.81  units=m  Spacing=8'-ARM-NON-CENTER-POST-3PH wires=['2-ACSR-B-6X1' '2-ACSR-B-6X1' '2-ACSR-B-6X1' '2-ACSR-B-6X1']
New Line.624252611 Phases= 1 Bus1=254426675.1     Bus2=624252609.1     Length=30.95  units=m  Spacing=VERTICAL-1-PH-104-1PH wires=['1/0-ACSR-B-6X1' '1/0-ACSR-B-6X1']
New Line.254399581 Phases= 3 Bus1=254399576.1.2.3 Bus2=254399583.1.2.3 Length=19.38  units=m  Spacing=8'-ARM-NON-CENTER-POST-3PH wires=['336-ACSR-B-18X1' '336-ACSR-B-18X1' '336-ACSR-B-18X1' '1/0-ACSR-B-6X1']
New Line.254420367 Phases= 2 Bus1=254420359.1.2   Bus2=254420369.1.2   Length=67.37  units=m  Spacing=8'-ARM-STANDARD-2PH wires=['2-ACSR-B-6X1' '2-ACSR-B-6X1' '2-ACSR-B-6X1']
New Line.624252412 Phases= 1 Bus1=254412452.1     Bus2=624252410.1     Length=81.90  units=m  Spacing=VERTICAL-1-PH-60-1PH wires=['4-ACSR-B-6X1' '4-ACSR-B-6X1']
New Line.262285258 Phases= 1 Bus1=254413190.1     Bus2=262285260.1     Length=1.53   units=m  Spacing=VERTICAL-1-PH-60-1PH wires=['2-ACSR-B-6X1' '2-ACSR-B-6X1']
New Line.262289013 Bus1=262289010.1     Bus2=260113608.1     LineCode=1/0-AL-HMWPECN-25KV Phases= 1 Length=98.34  units=m enable=yes
New Line.695134692 Phases= 3 Bus1=695134689.1.2.3 Bus2=254399451.1.2.3 Length=4.61   units=m  Spacing=8'-ARM-NON-CENTER-POST-3PH wires=['336-ACSR-B-18X1' '336-ACSR-B-18X1' '336-ACSR-B-18X1' '1/0-ACSR-B-6X1']
New Line.254406001 Phases= 1 Bus1=254405998.2     Bus2=254406003.2     Length=55.56  units=m  Spacing=VERTICAL-1-PH-60-1PH wires=['1/0-ACSR-B-6X1' '1/0-ACSR-B-6X1']
New Line.264161562 Phases= 1 Bus1=254420032.2     Bus2=264161564.2     Length=1.52   units=m  Spacing=VERTICAL-1-PH-60-1PH wires=['2-ACSR-B-6X1' '2-ACSR-B-6X1']
New Line.263905014 Phases= 1 Bus1=263905011.3     Bus2=254421130.3     Length=87.61  units=m  Spacing=VERTICAL-1-PH-60-1PH wires=['2-ACSR-B-6X1' '2-ACSR-B-6X1']
New Line.254413203 Phases= 1 Bus1=254413200.1     Bus2=254413205.1     Length=131.20 units=m  Spacing=VERTICAL-1-PH-60-1PH wires=['2-ACSR-B-6X1' '2-ACSR-B-6X1']
New Line.264166514 Phases= 1 Bus1=254427322.1     Bus2=264166516.1     Length=1.53   units=m  Spacing=VERTICAL-1-PH-60-1PH wires=['2-ACSR-B-6X1' '2-ACSR-B-6X1']
New Line.705406374 Phases= 1 Bus1=705406371.3     Bus2=254426595.3     Length=74.22  units=m  Spacing=VERTICAL-1-PH-60-1PH wires=['2-ACSR-B-6X1' '2-ACSR-B-6X1']
New Line.264161540 Phases= 1 Bus1=264161537.1     Bus2=254420172.1     Length=108.70 units=m  Spacing=VERTICAL-1-PH-60-1PH wires=['2-ACSR-B-6X1' '2-ACSR-B-6X1']
New Line.624252902 Phases= 2 Bus1=435573287.1.2   Bus2=624252900.1.2   Length=41.32  units=m  Spacing=8'-ARM-STANDARD-2PH wires=['1/0-ACSR-B-6X1' '1/0-ACSR-B-6X1' '1/0-ACSR-B-6X1']
New Line.264288528 Bus1=261013805.1     Bus2=264288526.1     LineCode=1/0-AL-TRXLPELCJ-25KV Phases= 1 Length=121.80 units=m enable=yes
New Line.695104834 Phases= 1 Bus1=695104823.1     Bus2=695104832.1     Length=47.95  units=m  Spacing=VERTICAL-1-PH-60-1PH wires=['2-ACSR-B-6X1' '2-ACSR-B-6X1']
New Line.254405696 Phases= 3 Bus1=254405693.1.2.3 Bus2=254405698.1.2.3 Length=77.81  units=m  Spacing=8'-ARM-NON-CENTER-POST-3PH wires=['1/0-ACSR-B-6X1' '1/0-ACSR-B-6X1' '1/0-ACSR-B-6X1' '2-ACSR-B-6X1']
New Line.705407109 Phases= 3 Bus1=254421198.1.2.3 Bus2=705407107.1.2.3 Length=35.98  units=m  Spacing=8'-ARM-NON-CENTER-POST-3PH wires=['1/0-ACSR-B-6X1' '1/0-ACSR-B-6X1' '1/0-ACSR-B-6X1' '2-ACSR-B-6X1']
New Line.278805270 Phases= 1 Bus1=254413130.1     Bus2=278805272.1     Length=1.54   units=m  Spacing=VERTICAL-1-PH-104-1PH wires=['2-ACSR-B-6X1' '2-ACSR-B-6X1']
New Line.259245467 Phases= 1 Bus1=259245468.2     Bus2=259245469.2     Length=31.85  units=m  Spacing=VERTICAL-1-PH-60-1PH wires=['1/0-ACSR-B-6X1' '1/0-ACSR-B-6X1']
New Line.254412752 Phases= 3 Bus1=254412747.1.2.3 Bus2=254412754.1.2.3 Length=55.49  units=m  Spacing=8'-ARM-NON-CENTER-POST-3PH wires=['2-ACSR-B-6X1' '2-ACSR-B-6X1' '2-ACSR-B-6X1' '2-ACSR-B-6X1']
New Line.709189521 Phases= 2 Bus1=709189518.1.2   Bus2=254420287.1.2   Length=58.56  units=m  Spacing=8'-ARM-STANDARD-2PH wires=['2-ACSR-B-6X1' '2-ACSR-B-6X1' '2-ACSR-B-6X1']
New Line.254412231 Phases= 1 Bus1=254412228.2     Bus2=254412233.2     Length=106.60 units=m  Spacing=VERTICAL-1-PH-60-1PH wires=['2-ACSR-B-6X1' '2-ACSR-B-6X1']
New Line.264166676 Phases= 1 Bus1=254421046.3     Bus2=264166678.3     Length=1.53   units=m  Spacing=VERTICAL-1-PH-60-1PH wires=['1/0-ACSR-B-6X1' '1/0-ACSR-B-6X1']
New Line.254420469 Phases= 3 Bus1=254420461.1.2.3 Bus2=254420471.1.2.3 Length=119.70 units=m  Spacing=8'-ARM-NON-CENTER-POST-3PH wires=['4-ACSR-B-6X1' '4-ACSR-B-6X1' '4-ACSR-B-6X1' '4-ACSR-B-6X1']
New Line.264166654 Phases= 1 Bus1=264166651.1     Bus2=254421249.1     Length=178.90 units=m  Spacing=VERTICAL-1-PH-60-1PH wires=['2-ACSR-B-6X1' '2-ACSR-B-6X1']
New Line.254412700 Phases= 3 Bus1=254412657.1.2.3 Bus2=254412702.1.2.3 Length=17.84  units=m
New Line.259322358 Phases= 3 Bus1=259322359.1.2.3 Bus2=254399550.1.2.3 Length=32.15  units=m  Spacing=8'-ARM-NON-CENTER-POST-3PH wires=['336-ACSR-B-18X1' '336-ACSR-B-18X1' '336-ACSR-B-18X1' '1/0-ACSR-B-6X1']
New Line.254420317 Phases= 2 Bus1=254420312.1.2   Bus2=254420319.1.2   Length=15.27  units=m  Spacing=8'-ARM-STANDARD-2PH wires=['4-ACSR-B-6X1' '4-ACSR-B-6X1' '4-ACSR-B-6X1']
New Line.264425665 Phases= 1 Bus1=264425662.1     Bus2=254427105.1     Length=71.27  units=m  Spacing=VERTICAL-1-PH-60-1PH wires=['2-ACSR-B-6X1' '2-ACSR-B-6X1']
New Line.705408000 Phases= 1 Bus1=705407997.1     Bus2=254413175.1     Length=35.04  units=m  Spacing=VERTICAL-1-PH-60-1PH wires=['2-ACSR-B-6X1' '2-ACSR-B-6X1']
New Line.263801386 Phases= 1 Bus1=263801383.1     Bus2=259298819.1     Length=20.02  units=m  Spacing=VERTICAL-1-PH-104-1PH wires=['1/0-ACSR-B-6X1' '1/0-ACSR-B-6X1']
New Line.254406431 Phases= 3 Bus1=254406428.1.2.3 Bus2=254406433.1.2.3 Length=69.41  units=m  Spacing=8'-ARM-NON-CENTER-POST-3PH wires=['1/0-ACSR-B-6X1' '1/0-ACSR-B-6X1' '1/0-ACSR-B-6X1' '1/0-ACSR-B-6X1']
New Line.624259649 Phases= 3 Bus1=624259646.1.2.3 Bus2=254412163.1.2.3 Length=45.88  units=m  Spacing=8'-ARM-NON-CENTER-POST-3PH wires=['336-ACSR-B-18X1' '336-ACSR-B-18X1' '336-ACSR-B-18X1' '1/0-ACSR-B-6X1']
New Line.254406468 Phases= 3 Bus1=254406337.1.2.3 Bus2=254406470.1.2.3 Length=84.27  units=m  Spacing=8'-ARM-NON-CENTER-POST-3PH wires=['2-ACSR-B-6X1' '2-ACSR-B-6X1' '2-ACSR-B-6X1' '2-ACSR-B-6X1']
New Line.705406653 Phases= 1 Bus1=254412592.2     Bus2=705406651.2     Length=27.93  units=m  Spacing=VERTICAL-1-PH-60-1PH wires=['4-ACSR-B-6X1' '4-ACSR-B-6X1']
New Line.709190207 Phases= 1 Bus1=709190204.3     Bus2=709190193.3     Length=111.60 units=m  Spacing=VERTICAL-1-PH-60-1PH wires=['4-ACSR-B-6X1' '4-ACSR-B-6X1']
New Line.262287198 Bus1=262287195.2     Bus2=260112408.2     LineCode=1/0-AL-HMWPECN-25KV Phases= 1 Length=98.40  units=m enable=yes
New Line.624259540 Phases= 1 Bus1=624259537.1     Bus2=624259526.1     Length=81.91  units=m  Spacing=VERTICAL-1-PH-60-1PH wires=['4-ACSR-B-6X1' '4-ACSR-B-6X1']
New Line.872043783 Phases= 1 Bus1=872043780.2     Bus2=254420896.2     Length=34.09  units=m  Spacing=VERTICAL-1-PH-60-1PH wires=['2-ACSR-B-6X1' '2-ACSR-B-6X1']
New Line.264425570 Phases= 1 Bus1=254420287.2     Bus2=264425572.2     Length=1.53   units=m  Spacing=VERTICAL-1-PH-60-1PH wires=['2-ACSR-B-6X1' '2-ACSR-B-6X1']
New Line.254412857 Phases= 1 Bus1=254412854.2     Bus2=254412859.2     Length=123.80 units=m  Spacing=VERTICAL-1-PH-60-1PH wires=['2-ACSR-B-6X1' '2-ACSR-B-6X1']
New Line.435573843 Phases= 3 Bus1=254413362.1.2.3 Bus2=435573842.1.2.3 Length=47.53  units=m  Spacing=8'-ARM-NON-CENTER-POST-3PH wires=['2-ACSR-B-6X1' '2-ACSR-B-6X1' '2-ACSR-B-6X1' '2-ACSR-B-6X1']
New Line.705407210 Phases= 1 Bus1=254412814.2     Bus2=705407208.2     Length=68.75  units=m  Spacing=VERTICAL-1-PH-60-1PH wires=['4-ACSR-B-6X1' '4-ACSR-B-6X1']
New Line.264161585 Phases= 1 Bus1=264161582.2     Bus2=254420042.2     Length=88.13  units=m  Spacing=VERTICAL-1-PH-60-1PH wires=['4-ACSR-B-6X1' '4-ACSR-B-6X1']
New Line.260113761 Bus1=260113758.2     Bus2=260113763.2     LineCode=1/0-AL-TRXLPELCJ-25KV Phases= 1 Length=180.90 units=m enable=yes
New Line.262283513 Phases= 1 Bus1=262283510.2     Bus2=254405713.2     Length=76.88  units=m  Spacing=VERTICAL-1-PH-60-1PH wires=['2-ACSR-B-6X1' '2-ACSR-B-6X1']
New Line.254399489 Phases= 3 Bus1=254399490.1.2.3 Bus2=254399491.1.2.3 Length=37.25  units=m  Spacing=8'-ARM-NON-CENTER-POST-3PH wires=['336-ACSR-B-18X1' '336-ACSR-B-18X1' '336-ACSR-B-18X1' '1/0-ACSR-B-6X1']
New Line.260110212 Bus1=260110209.2     Bus2=260110214.2     LineCode=1/0-AL-HMWPECN-25KV Phases= 1 Length=109.60 units=m enable=yes
New Line.254420744 Phases= 2 Bus1=254420681.2.3   Bus2=254420746.2.3   Length=31.29  units=m  Spacing=8'-ARM-STANDARD-2PH wires=['4-ACSR-B-6X1' '4-ACSR-B-6X1' '4-ACSR-B-6X1']
New Line.624252612 Phases= 1 Bus1=624252609.1     Bus2=435572751.1     Length=24.91  units=m  Spacing=VERTICAL-1-PH-104-1PH wires=['1/0-ACSR-B-6X1' '1/0-ACSR-B-6X1']
New Line.705406946 Phases= 1 Bus1=705406893.3     Bus2=705406944.3     Length=36.46  units=m  Spacing=VERTICAL-1-PH-60-1PH wires=['4-ACSR-B-6X1' '4-ACSR-B-6X1']
New Line.254405684 Phases= 3 Bus1=254405681.1.2.3 Bus2=254405686.1.2.3 Length=146.90 units=m  Spacing=8'-ARM-NON-CENTER-POST-3PH wires=['1/0-ACSR-B-6X1' '1/0-ACSR-B-6X1' '1/0-ACSR-B-6X1' '2-ACSR-B-6X1']
New Line.254413338 Phases= 3 Bus1=254413339.1.2.3 Bus2=254413340.1.2.3 Length=64.43  units=m  Spacing=8'-ARM-NON-CENTER-POST-3PH wires=['2-ACSR-B-6X1' '2-ACSR-B-6X1' '2-ACSR-B-6X1' '2-ACSR-B-6X1']
New Line.259555147 Phases= 2 Bus1=259555148.2.3   Bus2=259358233.2.3   Length=50.15  units=m  Spacing=8'-ARM-STANDARD-2PH wires=['4-ACSR-B-6X1' '4-ACSR-B-6X1' '4-ACSR-B-6X1']
New Line.254413061 Phases= 3 Bus1=254413058.1.2.3 Bus2=254413063.1.2.3 Length=138.10 units=m  Spacing=8'-ARM-NON-CENTER-POST-3PH wires=['1/0-ACSR-B-6X1' '1/0-ACSR-B-6X1' '1/0-ACSR-B-6X1' '1/0-ACSR-B-6X1']
New Line.261013809 Bus1=260989316.1     Bus2=261013805.1     LineCode=1/0-AL-TRXLPELCJ-25KV Phases= 1 Length=373.20 units=m enable=yes
New Line.254413011 Phases= 3 Bus1=254413008.1.2.3 Bus2=254413013.1.2.3 Length=68.43  units=m  Spacing=8'-ARM-NON-CENTER-POST-3PH wires=['2-ACSR-B-6X1' '2-ACSR-B-6X1' '2-ACSR-B-6X1' '2-ACSR-B-6X1']
New Line.872043359 Phases= 2 Bus1=259172115.2.3   Bus2=872043357.2.3   Length=20.68  units=m  Spacing=8'-ARM-STANDARD-2PH wires=['4-ACSR-B-6X1' '4-ACSR-B-6X1' '4-ACSR-B-6X1']
New Line.254420200 Phases= 2 Bus1=254420192.1.2   Bus2=254420202.1.2   Length=102.80 units=m  Spacing=8'-ARM-STANDARD-2PH wires=['4-ACSR-B-6X1' '4-ACSR-B-6X1' '4-ACSR-B-6X1']
New Line.705406654 Phases= 1 Bus1=705406651.2     Bus2=259482594.2     Length=79.29  units=m  Spacing=VERTICAL-1-PH-60-1PH wires=['4-ACSR-B-6X1' '4-ACSR-B-6X1']
New Line.264425673 Phases= 1 Bus1=254427312.3     Bus2=264425671.3     Length=1.52   units=m  Spacing=VERTICAL-1-PH-60-1PH wires=['2-ACSR-B-6X1' '2-ACSR-B-6X1']
New Line.254406411 Phases= 3 Bus1=254406406.1.2.3 Bus2=254406413.1.2.3 Length=68.97  units=m  Spacing=8'-ARM-NON-CENTER-POST-3PH wires=['1/0-ACSR-B-6X1' '1/0-ACSR-B-6X1' '1/0-ACSR-B-6X1' '1/0-ACSR-B-6X1']
New Line.624259548 Phases= 3 Bus1=254412298.1.2.3 Bus2=624259546.1.2.3 Length=49.30  units=m  Spacing=8'-ARM-NON-CENTER-POST-3PH wires=['336-ACSR-B-18X1' '336-ACSR-B-18X1' '336-ACSR-B-18X1' '1/0-ACSR-B-6X1']
New Line.695134892 Phases= 3 Bus1=695134876.1.2.3 Bus2=695134890.1.2.3 Length=60.73  units=m  Spacing=8'-ARM-NON-CENTER-POST-3PH wires=['336-ACSR-B-18X1' '336-ACSR-B-18X1' '336-ACSR-B-18X1' '1/0-ACSR-B-6X1']
New Line.254405861 Phases= 3 Bus1=254405858.1.2.3 Bus2=254405863.1.2.3 Length=28.49  units=m  Spacing=8'-ARM-NON-CENTER-POST-3PH wires=['1/0-ACSR-B-6X1' '1/0-ACSR-B-6X1' '1/0-ACSR-B-6X1' '2-ACSR-B-6X1']
New Line.254405458 Phases= 3 Bus1=254405450.1.2.3 Bus2=254405460.1.2.3 Length=48.87  units=m  Spacing=8'-ARM-NON-CENTER-POST-3PH wires=['336-ACSR-B-18X1' '336-ACSR-B-18X1' '336-ACSR-B-18X1' '1/0-ACSR-B-6X1']
New Line.261041342 Bus1=261041343.2     Bus2=261041338.2     LineCode=1/0-AL-HMWPECN-25KV Phases= 1 Length=227.10 units=m enable=yes
New Line.254405826 Phases= 1 Bus1=254405773.1     Bus2=254405828.1     Length=94.60  units=m  Spacing=VERTICAL-1-PH-60-1PH wires=['2-ACSR-B-6X1' '2-ACSR-B-6X1']
New Line.262283693 Phases= 1 Bus1=262283690.2     Bus2=254406631.2     Length=22.72  units=m  Spacing=VERTICAL-1-PH-60-1PH wires=['2-ACSR-B-6X1' '2-ACSR-B-6X1']
New Line.254412690 Phases= 1 Bus1=254412687.3     Bus2=254412692.3     Length=102.00 units=m  Spacing=VERTICAL-1-PH-60-1PH wires=['2-ACSR-B-6X1' '2-ACSR-B-6X1']
New Line.254412236 Phases= 1 Bus1=254412233.2     Bus2=254412238.2     Length=123.50 units=m  Spacing=VERTICAL-1-PH-60-1PH wires=['2-ACSR-B-6X1' '2-ACSR-B-6X1']
New Line.254405761 Phases= 1 Bus1=254405753.1     Bus2=254405763.1     Length=38.40  units=m  Spacing=VERTICAL-1-PH-60-1PH wires=['1/0-ACSR-B-6X1' '1/0-ACSR-B-6X1']
New Line.254406166 Phases= 3 Bus1=254406163.1.2.3 Bus2=254406168.1.2.3 Length=42.41  units=m  Spacing=8'-ARM-NON-CENTER-POST-3PH wires=['336-ACSR-B-18X1' '336-ACSR-B-18X1' '336-ACSR-B-18X1' '1/0-ACSR-B-6X1']
New Line.254412246 Phases= 1 Bus1=254412243.2     Bus2=254412248.2     Length=65.60  units=m  Spacing=VERTICAL-1-PH-60-1PH wires=['2-ACSR-B-6X1' '2-ACSR-B-6X1']
New Line.264161553 Phases= 1 Bus1=254420087.1     Bus2=264161555.1     Length=1.54   units=m  Spacing=VERTICAL-1-PH-60-1PH wires=['4-ACSR-B-6X1' '4-ACSR-B-6X1']
New Line.695104728 Phases= 1 Bus1=254426945.1     Bus2=695104726.1     Length=110.20 units=m  Spacing=VERTICAL-1-PH-60-1PH wires=['4-ACSR-B-6X1' '4-ACSR-B-6X1']
New Line.872043731 Phases= 1 Bus1=254420936.2     Bus2=872043729.2     Length=24.82  units=m  Spacing=VERTICAL-1-PH-104-1PH wires=['1/0-ACSR-B-6X1' '1/0-ACSR-B-6X1']
New Line.435571829 Phases= 1 Bus1=435571827.3     Bus2=254406611.3     Length=61.74  units=m  Spacing=VERTICAL-1-PH-60-1PH wires=['2-ACSR-B-6X1' '2-ACSR-B-6X1']
New Line.264166699 Phases= 1 Bus1=264166696.2     Bus2=254420816.2     Length=59.70  units=m  Spacing=VERTICAL-1-PH-60-1PH wires=['2-ACSR-B-6X1' '2-ACSR-B-6X1']
New Line.260987814 Bus1=259222575.1     Bus2=260987816.1     LineCode=1/0-AL-TRXLPELCJ-25KV Phases= 1 Length=93.84  units=m enable=yes
New Line.264294872 Bus1=260110164.2     Bus2=264294869.2     LineCode=1/0-AL-HMWPECN-25KV Phases= 1 Length=102.00 units=m enable=yes
New Line.260111271 Bus1=260111268.1.2.3 Bus2=260111273.1.2.3 LineCode=1/0-AL-HMWPECN-25KV Phases= 3 Length=87.29  units=m enable=yes
New Line.705406773 Phases= 3 Bus1=705406770.1.2.3 Bus2=254412934.1.2.3 Length=53.16  units=m  Spacing=8'-ARM-NON-CENTER-POST-3PH wires=['4-ACSR-B-6X1' '4-ACSR-B-6X1' '4-ACSR-B-6X1' '4-ACSR-B-6X1']
New Line.695105422 Phases= 1 Bus1=695105419.1     Bus2=254427075.1     Length=87.97  units=m  Spacing=VERTICAL-1-PH-60-1PH wires=['4-ACSR-B-6X1' '4-ACSR-B-6X1']
New Line.705407146 Phases= 1 Bus1=705407143.3     Bus2=254421225.3     Length=98.66  units=m  Spacing=VERTICAL-1-PH-60-1PH wires=['1/0-ACSR-B-6X1' '1/0-ACSR-B-6X1']
New Line.262287283 Bus1=254421291.1.2.3 Bus2=262287285.1.2.3 LineCode=1/0-AL-HMWPECN-25KV Phases= 3 Length=1.52   units=m enable=yes
New Line.624585081 Phases= 3 Bus1=254399546.1.2.3 Bus2=624585079.1.2.3 Length=57.83  units=m  Spacing=HORIZ-LINE-POST-3PH wires=['2-ACSR-B-6X1' '2-ACSR-B-6X1' '2-ACSR-B-6X1' '2-ACSR-B-6X1']
New Line.705406491 Phases= 1 Bus1=705406488.3     Bus2=254426645.3     Length=102.10 units=m  Spacing=VERTICAL-1-PH-60-1PH wires=['2-ACSR-B-6X1' '2-ACSR-B-6X1']
New Line.254405736 Phases= 1 Bus1=254405728.1     Bus2=254405738.1     Length=69.73  units=m  Spacing=VERTICAL-1-PH-60-1PH wires=['1/0-ACSR-B-6X1' '1/0-ACSR-B-6X1']
New Line.254405896 Phases= 1 Bus1=254405893.2     Bus2=254405898.2     Length=60.93  units=m  Spacing=VERTICAL-1-PH-60-1PH wires=['1/0-ACSR-B-6X1' '2-ACSR-B-6X1']
New Line.264194885 Bus1=260112478.3     Bus2=264194883.3     LineCode=1/0-AL-TRXLPELCJ-25KV Phases= 1 Length=122.10 units=m enable=yes
New Line.254412837 Phases= 1 Bus1=254412834.2     Bus2=254412839.2     Length=88.41  units=m  Spacing=VERTICAL-1-PH-60-1PH wires=['2-ACSR-B-6X1' '2-ACSR-B-6X1']
New Line.262283616 Phases= 3 Bus1=254405569.1.2.3 Bus2=262283618.1.2.3 Length=1.53   units=m  Spacing=8'-ARM-STANDARD-3PH wires=['2-ACSR-B-6X1' '2-ACSR-B-6X1' '2-ACSR-B-6X1' '2-ACSR-B-6X1']
New Line.261103819 Bus1=259330631.1     Bus2=261103821.1     LineCode=1/0-AL-TRXLPELCJ-25KV Phases= 1 Length=93.68  units=m enable=yes
New Line.262281694 Bus1=254399469.1.2.3 Bus2=262281696.1.2.3 LineCode=1/0-AL-HMWPECN-25KV Phases= 3 Length=1.51   units=m enable=yes
New Line.254426633 Phases= 1 Bus1=254426630.3     Bus2=254426635.3     Length=60.03  units=m  Spacing=VERTICAL-1-PH-60-1PH wires=['2-ACSR-B-6X1' '2-ACSR-B-6X1']
New Line.262287306 Bus1=262287303.3     Bus2=260112468.3     LineCode=1/0-AL-TRXLPELCJ-25KV Phases= 1 Length=44.36  units=m enable=yes
New Line.264276579 Bus1=260979184.2     Bus2=264276577.2     LineCode=1/0-AL-HMWPECN-25KV Phases= 1 Length=96.43  units=m enable=yes
New Line.254420449 Phases= 1 Bus1=254420446.1     Bus2=254420451.1     Length=53.32  units=m  Spacing=VERTICAL-1-PH-60-1PH wires=['4-ACSR-B-6X1' '4-ACSR-B-6X1']
New Line.262285122 Bus1=254412632.2     Bus2=262285124.2     LineCode=1/0-AL-HMWPECN-25KV Phases= 1 Length=1.53   units=m enable=yes
New Line.254426533 Phases= 1 Bus1=254426530.2     Bus2=254426535.2     Length=52.56  units=m  Spacing=VERTICAL-1-PH-60-1PH wires=['2-ACSR-B-6X1' '2-ACSR-B-6X1']
New Line.435573708 Phases= 1 Bus1=254413195.1     Bus2=435573710.1     Length=1.53   units=m  Spacing=VERTICAL-1-PH-60-1PH wires=['4-ACSR-B-6X1' '4-ACSR-B-6X1']
New Line.254426628 Phases= 1 Bus1=254426625.3     Bus2=254426630.3     Length=124.10 units=m  Spacing=VERTICAL-1-PH-60-1PH wires=['2-ACSR-B-6X1' '2-ACSR-B-6X1']
New Line.254405522 Phases= 3 Bus1=254405514.1.2.3 Bus2=254405524.1.2.3 Length=73.54  units=m  Spacing=8'-ARM-NON-CENTER-POST-3PH wires=['336-ACSR-B-18X1' '336-ACSR-B-18X1' '336-ACSR-B-18X1' '1/0-ACSR-B-6X1']
New Line.254406552 Phases= 3 Bus1=254406544.1.2.3 Bus2=254406554.1.2.3 Length=229.80 units=m  Spacing=8'-ARM-STANDARD-3PH wires=['1/0-ACSR-B-6X1' '1/0-ACSR-B-6X1' '1/0-ACSR-B-6X1' '1/0-ACSR-B-6X1']
New Line.262288875 Bus1=262288872.3     Bus2=260113558.3     LineCode=2-AL-HMWPECN-25KV Phases= 1 Length=227.20 units=m enable=yes
New Line.264194665 Bus1=260110259.1.2.3 Bus2=264194667.1.2.3 LineCode=1/0-AL-HMWPECN-25KV Phases= 3 Length=1.53   units=m enable=yes
New Line.254406188 Phases= 3 Bus1=254406183.1.2.3 Bus2=254406190.1.2.3 Length=149.60 units=m  Spacing=8'-ARM-NON-CENTER-POST-3PH wires=['1/0-ACSR-B-6X1' '1/0-ACSR-B-6X1' '1/0-ACSR-B-6X1' '1/0-ACSR-B-6X1']
New Line.254406354 Phases= 3 Bus1=254406351.1.2.3 Bus2=254406366.1.2.3 Length=75.52  units=m  Spacing=8'-ARM-NON-CENTER-POST-3PH wires=['1/0-ACSR-B-6X1' '1/0-ACSR-B-6X1' '1/0-ACSR-B-6X1' '1/0-ACSR-B-6X1']
New Line.261177707 Bus1=261177704.2     Bus2=261177709.2     LineCode=1/0-AL-TRXLPELCJ-25KV Phases= 1 Length=67.93  units=m enable=yes
New Line.254426583 Phases= 1 Bus1=254426580.3     Bus2=254426585.3     Length=100.10 units=m  Spacing=VERTICAL-1-PH-60-1PH wires=['2-ACSR-B-6X1' '2-ACSR-B-6X1']
New Line.705407473 Phases= 3 Bus1=705407470.1.2.3 Bus2=254421301.1.2.3 Length=41.19  units=m  Spacing=8'-ARM-NON-CENTER-POST-3PH wires=['1/0-ACSR-B-6X1' '1/0-ACSR-B-6X1' '1/0-ACSR-B-6X1' '2-ACSR-B-6X1']
New Line.259545096 Phases= 3 Bus1=254405487.1.2.3 Bus2=254405491.1.2.3 Length=44.61  units=m  Spacing=8'-ARM-NON-CENTER-POST-3PH wires=['336-ACSR-B-18X1' '336-ACSR-B-18X1' '336-ACSR-B-18X1' '1/0-ACSR-B-6X1']
New Line.695105588 Phases= 1 Bus1=254427110.1     Bus2=695105586.1     Length=103.50 units=m  Spacing=VERTICAL-1-PH-60-1PH wires=['2-ACSR-B-6X1' '2-ACSR-B-6X1']
New Line.264425588 Phases= 1 Bus1=254420631.2     Bus2=264425590.2     Length=1.52   units=m  Spacing=VERTICAL-1-PH-60-1PH wires=['2-ACSR-B-6X1' '2-ACSR-B-6X1']
New Line.695104814 Phases= 1 Bus1=254427025.1     Bus2=695104812.1     Length=46.76  units=m  Spacing=VERTICAL-1-PH-60-1PH wires=['2-ACSR-B-6X1' '2-ACSR-B-6X1']
New Line.254406394 Phases= 3 Bus1=254406391.1.2.3 Bus2=254406396.1.2.3 Length=97.26  units=m  Spacing=8'-ARM-NON-CENTER-POST-3PH wires=['2-ACSR-B-6X1' '2-ACSR-B-6X1' '2-ACSR-B-6X1' '2-ACSR-B-6X1']
New Line.254412655 Phases= 3 Bus1=254412652.1.2.3 Bus2=254412657.1.2.3 Length=26.67  units=m
New Line.263715714 Bus1=263715711.1     Bus2=260989305.1     LineCode=1/0-AL-TRXLPELCJ-25KV Phases= 1 Length=183.30 units=m enable=yes
New Line.262281699 Bus1=262281696.1.2.3 Bus2=260108569.1.2.3 LineCode=1/0-AL-HMWPECN-25KV Phases= 3 Length=29.96  units=m enable=yes
New Line.264544932 Bus1=254399457.2     Bus2=264544934.2     LineCode=1/0-AL-TRXLPELCJ-25KV Phases= 1 Length=1.53   units=m enable=yes
New Line.254405766 Phases= 1 Bus1=254405763.1     Bus2=254405768.1     Length=46.66  units=m  Spacing=VERTICAL-1-PH-60-1PH wires=['1/0-ACSR-B-6X1' '1/0-ACSR-B-6X1']
New Line.254421104 Phases= 1 Bus1=254421101.3     Bus2=254421106.3     Length=98.40  units=m  Spacing=VERTICAL-1-PH-60-1PH wires=['2-ACSR-B-6X1' '2-ACSR-B-6X1']
New Line.866104661 Phases= 1 Bus1=254420986.3     Bus2=866104663.3     Length=1.53   units=m  Spacing=VERTICAL-1-PH-60-1PH wires=['4-ACSR-B-6X1' '4-ACSR-B-6X1']
New Line.254406589 Phases= 3 Bus1=254406571.1.2.3 Bus2=254406591.1.2.3 Length=72.66  units=m  Spacing=8'-ARM-NON-CENTER-POST-3PH wires=['2-ACSR-B-6X1' '2-ACSR-B-6X1' '2-ACSR-B-6X1' '1/0-ACSR-B-6X1']
New Line.624252645 Phases= 1 Bus1=624252642.2     Bus2=254412338.2     Length=43.58  units=m  Spacing=VERTICAL-1-PH-60-1PH wires=['1/0-ACSR-B-6X1' '1/0-ACSR-B-6X1']
New Line.709190179 Phases= 1 Bus1=254421156.3     Bus2=709190177.3     Length=40.24  units=m  Spacing=VERTICAL-1-PH-60-1PH wires=['2-ACSR-B-6X1' '2-ACSR-B-6X1']
New Line.254413243 Phases= 1 Bus1=254413235.1     Bus2=254413245.1     Length=88.89  units=m  Spacing=VERTICAL-1-PH-60-1PH wires=['2-ACSR-B-6X1' '2-ACSR-B-6X1']
New Line.263715723 Bus1=263715720.1     Bus2=260989320.1     LineCode=1/0-AL-TRXLPELCJ-25KV Phases= 1 Length=91.77  units=m enable=yes
New Line.254406557 Phases= 3 Bus1=254405455.1.2.3 Bus2=254406559.1.2.3 Length=77.36  units=m  Spacing=8'-ARM-NON-CENTER-POST-3PH wires=['336-ACSR-B-18X1' '336-ACSR-B-18X1' '336-ACSR-B-18X1' '1/0-ACSR-B-6X1']
New Line.264194876 Bus1=261059305.2     Bus2=264194874.2     LineCode=1/0-AL-TRXLPELCJ-25KV Phases= 1 Length=42.86  units=m enable=yes
New Line.705407928 Phases= 1 Bus1=705407925.1     Bus2=254413305.1     Length=18.84  units=m  Spacing=VERTICAL-1-PH-60-1PH wires=['2-ACSR-B-6X1' '2-ACSR-B-6X1']
New Line.259346339 Phases= 3 Bus1=259248782.1.2.3 Bus2=259118275.1.2.3 Length=14.56  units=m  Spacing=8'-ARM-STANDARD-3PH wires=['1/0-ACSR-B-6X1' '1/0-ACSR-B-6X1' '1/0-ACSR-B-6X1' '1/0-ACSR-B-6X1']
New Line.254421019 Phases= 1 Bus1=254421016.3     Bus2=254421021.3     Length=44.11  units=m  Spacing=VERTICAL-1-PH-60-1PH wires=['1/0-ACSR-B-6X1' '1/0-ACSR-B-6X1']
New Line.262288951 Bus1=254426935.1     Bus2=262288953.1     LineCode=1/0-AL-HMWPECN-25KV Phases= 1 Length=1.53   units=m enable=yes
New Line.254427248 Phases= 3 Bus1=254427245.1.2.3 Bus2=254427250.1.2.3 Length=46.43  units=m  Spacing=8'-ARM-NON-CENTER-POST-3PH wires=['2-ACSR-B-6X1' '2-ACSR-B-6X1' '2-ACSR-B-6X1' '2-ACSR-B-6X1']
New Line.709190225 Phases= 1 Bus1=709190222.3     Bus2=709190213.3     Length=103.20 units=m  Spacing=VERTICAL-1-PH-60-1PH wires=['4-ACSR-B-6X1' '4-ACSR-B-6X1']
New Line.705407375 Phases= 1 Bus1=254426560.2     Bus2=705407373.2     Length=74.90  units=m  Spacing=VERTICAL-1-PH-60-1PH wires=['2-ACSR-B-6X1' '2-ACSR-B-6X1']
New Line.259988437 Phases= 1 Bus1=254412388.2     Bus2=254412392.2     Length=32.11  units=m  Spacing=VERTICAL-1-PH-60-1PH wires=['2-ACSR-B-6X1' '2-ACSR-B-6X1']
New Line.262288911 Bus1=262288908.1     Bus2=260113573.1     LineCode=2-AL-HMWPECN-25KV Phases= 1 Length=286.10 units=m enable=yes
New Line.263904964 Phases= 3 Bus1=254399447.1.2.3 Bus2=263904966.1.2.3 Length=1.53   units=m  Spacing=8'-ARM-NON-CENTER-POST-3PH wires=['336-ACSR-B-18X1' '336-ACSR-B-18X1' '336-ACSR-B-18X1' '1/0-ACSR-B-6X1']
New Line.262289076 Phases= 3 Bus1=262289073.1.2.3 Bus2=254399546.1.2.3 Length=44.46  units=m  Spacing=8'-ARM-NON-CENTER-POST-3PH wires=['2-ACSR-B-6X1' '2-ACSR-B-6X1' '2-ACSR-B-6X1' '2-ACSR-B-6X1']
New Line.624324056 Phases= 3 Bus1=624324051.1.2.3 Bus2=254420569.1.2.3 Length=7.76   units=m  Spacing=8'-ARM-NON-CENTER-POST-3PH wires=['2-ACSR-B-6X1' '2-ACSR-B-6X1' '2-ACSR-B-6X1' '2-ACSR-B-6X1']
New Line.254412939 Phases= 3 Bus1=254412934.1.2.3 Bus2=254412941.1.2.3 Length=12.90  units=m  Spacing=8'-ARM-NON-CENTER-POST-3PH wires=['4-ACSR-B-6X1' '4-ACSR-B-6X1' '4-ACSR-B-6X1' '4-ACSR-B-6X1']
New Line.261131356 Bus1=261125171.3     Bus2=261131358.3     LineCode=1/0-AL-TRXLPELCJ-25KV Phases= 1 Length=74.59  units=m enable=yes
New Line.254413372 Phases= 3 Bus1=254413369.1.2.3 Bus2=254413374.1.2.3 Length=38.99  units=m  Spacing=8'-ARM-NON-CENTER-POST-3PH wires=['2-ACSR-B-6X1' '2-ACSR-B-6X1' '2-ACSR-B-6X1' '2-ACSR-B-6X1']
New Line.254426738 Phases= 2 Bus1=254426735.1.2   Bus2=254426740.1.2   Length=51.74  units=m  Spacing=8'-ARM-STANDARD-2PH wires=['1/0-ACSR-B-6X1' '1/0-ACSR-B-6X1' '1/0-ACSR-B-6X1']
New Line.254406268 Phases= 1 Bus1=254406265.3     Bus2=254406270.3     Length=31.36  units=m  Spacing=VERTICAL-1-PH-60-1PH wires=['1/0-ACSR-B-6X1' '2-ACSR-B-6X1']
New Line.709189878 Phases= 1 Bus1=709189875.1     Bus2=254421136.1     Length=65.54  units=m  Spacing=VERTICAL-1-PH-60-1PH wires=['2-ACSR-B-6X1' '2-ACSR-B-6X1']
New Line.262283504 Phases= 1 Bus1=262283501.2     Bus2=254405656.2     Length=45.22  units=m  Spacing=VERTICAL-1-PH-60-1PH wires=['2-ACSR-B-6X1' '2-ACSR-B-6X1']
New Line.263978067 Bus1=254420132.2     Bus2=263978069.2     LineCode=1/0-AL-TRXLPELCJ-25KV Phases= 1 Length=1.53   units=m enable=yes
New Line.260111241 Bus1=260111242.3     Bus2=260111243.3     LineCode=1/0-AL-HMWPECN-25KV Phases= 1 Length=227.00 units=m enable=yes
New Line.254426953 Phases= 1 Bus1=254426950.1     Bus2=254426955.1     Length=36.52  units=m  Spacing=VERTICAL-1-PH-60-1PH wires=['4-ACSR-B-6X1' '4-ACSR-B-6X1']
New Line.254420526 Phases= 3 Bus1=254420513.1.2.3 Bus2=254420528.1.2.3 Length=83.34  units=m  Spacing=8'-ARM-NON-CENTER-POST-3PH wires=['4-ACSR-B-6X1' '4-ACSR-B-6X1' '4-ACSR-B-6X1' '4-ACSR-B-6X1']