New Line.A1 Phases=3 Bus1=01_1.1.2.3 Bus2=01_2.1.2.3 Length=1597 units=ft Spacing=PEC_PEC_23KV_Tris_3P wires=['PEC_477KCMIL_AAC' 'PEC_477KCMIL_AAC' 'PEC_477KCMIL_AAC' 'PEC_#4AWG_CHD' ]
New Line.A2 Phases=3 Bus1=01_2.1.2.3 Bus2=02_1.1.2.3 Length=1597 units=ft Spacing=PEC_PEC_23KV_Tris_3P wires=['PEC_477KCMIL_AAC' 'PEC_477KCMIL_AAC' 'PEC_477KCMIL_AAC' 'PEC_#4AWG_CHD' ]
New Line.B1 Phases=3 Bus1=02_1.1.2.3 Bus2=02_2.1.2.3 Length=153.8 units=ft Spacing=PEC_PEC_23kV_Tria_3P wires=['PEC_477KCMIL_AAC' 'PEC_477KCMIL_AAC' 'PEC_477KCMIL_AAC' 'PEC_#4AWG_CHD']
New Line.B2 Phases=3 Bus1=02_2.1.2.3 Bus2=03_1.1.2.3 Length=153.8 units=ft Spacing=PEC_PEC_23kV_Tria_3P wires=['PEC_477KCMIL_AAC' 'PEC_477KCMIL_AAC' 'PEC_477KCMIL_AAC' 'PEC_#4AWG_CHD']
New LIne.C1 Phases=3 Bus1=03_1.1.2.3 Bus2=03_2.1.2.3 Length=1882.59 units=ft Spacing=PEC_PEC_23kV_Tria_3P wires=['PEC_477KCMIL_AAC' 'PEC_477KCMIL_AAC' 'PEC_477KCMIL_AAC' 'PEC_#1/0AWG_ACSR']
New LIne.C2 Phases=3 Bus1=03_2.1.2.3 Bus2=04_1.1.2.3 Length=1882.59 units=ft Spacing=PEC_PEC_23kV_Tria_3P wires=['PEC_477KCMIL_AAC' 'PEC_477KCMIL_AAC' 'PEC_477KCMIL_AAC' 'PEC_#1/0AWG_ACSR']
New Line.D1 Phases=3 Bus1=04_1.1.2.3 Bus2=04_2.1.2.3 Length=387.52 units=ft Spacing=PEC_PEC_23kV_Tria_3P wires=['PEC_477KCMIL_AAC' 'PEC_477KCMIL_AAC' 'PEC_477KCMIL_AAC' 'PEC_#1/0AWG_ACSR']
New Line.D2 Phases=3 Bus1=04_2.1.2.3 Bus2=05_1.1.2.3 Length=581.28 units=ft Spacing=PEC_PEC_23kV_Tria_3P wires=['PEC_477KCMIL_AAC' 'PEC_477KCMIL_AAC' 'PEC_477KCMIL_AAC' 'PEC_#1/0AWG_ACSR']
New Line.E1 Phases=3 Bus1=05_1.1.2.3 Bus2=05_2.1.2.3 Length=230 units=ft Spacing=PEC_PEC_23kV_Tria_3P wires=['PEC_477KCMIL_AAC' 'PEC_477KCMIL_AAC' 'PEC_477KCMIL_AAC' 'PEC_#1/0AWG_ACSR']
New Line.E2 Phases=3 Bus1=05_2.1.2.3 Bus2=06_1.1.2.3 Length=102 units=ft Spacing=PEC_PEC_23kV_Tria_3P wires=['PEC_477KCMIL_AAC' 'PEC_477KCMIL_AAC' 'PEC_477KCMIL_AAC' 'PEC_#1/0AWG_ACSR']
New Line.F1 Phases=3 Bus1=06_1.1.2.3 Bus2=25_1.1.2.3 Length=1123 units=ft Spacing=PEC_PEC_23kV_VERT_3P wires=['PEC_#1/0AWG_ACSR' 'PEC_#1/0AWG_ACSR' 'PEC_#1/0AWG_ACSR' 'PEC_#1/0AWG_ACSR']
New Line.F2 Phases=3 Bus1=25_1.1.2.3 Bus2=25_2.1.2.3 Length=1123 units=ft Spacing=PEC_PEC_23kV_VERT_3P wires=['PEC_#1/0AWG_ACSR' 'PEC_#1/0AWG_ACSR' 'PEC_#1/0AWG_ACSR' 'PEC_#1/0AWG_ACSR']
New Line.G1 Phases=3 Bus1=06_1.1.2.3 Bus2=06_2.1.2.3 Length=358 units=ft Spacing=PEC_PEC_23kV_Tria_3P wires=['PEC_477KCMIL_AAC' 'PEC_477KCMIL_AAC' 'PEC_477KCMIL_AAC' 'PEC_#1/0AWG_ACSR']
New Line.H1 Phases=3 Bus1=06_2.1.2.3 Bus2=26_1.1.2.3 Length=656.6 units=ft Spacing=PEC_PEC_23kV_Tria_3P wires=['PEC_#4/0AWG_AAAC' 'PEC_#4/0AWG_AAAC' 'PEC_#4/0AWG_AAAC' 'PEC_#1/0AWG_AAAC']
New Line.H2 Phases=3 Bus1=26_1.1.2.3 Bus2=26_2.1.2.3 Length=281.4 units=ft Spacing=PEC_PEC_23kV_Tria_3P wires=['PEC_#4/0AWG_AAAC' 'PEC_#4/0AWG_AAAC' 'PEC_#4/0AWG_AAAC' 'PEC_#1/0AWG_AAAC']
New Line.I1 Phases=3 Bus1=06_2.1.2.3 Bus2=06_3.1.2.3 Length=885 units=ft Spacing=PEC_PEC_23kV_VERT_3P wires=['PEC_477KCMIL_AAC' 'PEC_477KCMIL_AAC' 'PEC_477KCMIL_AAC' 'PEC_#4AWG_CHD' ]
New Line.I2 Phases=3 Bus1=06_3.1.2.3 Bus2=07_1.1.2.3 Length=885 units=ft Spacing=PEC_PEC_23kV_VERT_3P wires=['PEC_477KCMIL_AAC' 'PEC_477KCMIL_AAC' 'PEC_477KCMIL_AAC' 'PEC_#4AWG_CHD' ]
New Line.J1 Phases=3 Bus1=07_1.1.2.3 Bus2=07_2.1.2.3 Length=607 units=ft Spacing=PEC_PEC_23kV_VERT_3P wires=['PEC_477KCMIL_AAC' 'PEC_477KCMIL_AAC' 'PEC_477KCMIL_AAC' 'PEC_#1/0AWG_ACSR' ]
New Line.J2 Phases=3 Bus1=07_2.1.2.3 Bus2=08_1.1.2.3 Length=607 units=ft Spacing=PEC_PEC_23kV_VERT_3P wires=['PEC_477KCMIL_AAC' 'PEC_477KCMIL_AAC' 'PEC_477KCMIL_AAC' 'PEC_#1/0AWG_ACSR' ]
New Line.K1 Phases=3 Bus1=08_1.1.2.3 Bus2=08_A1.1.2.3 Length=2833.6 units=ft Spacing=PEC_PEC_23kV_TRIA_3P wires=['PEC_#2AWG_ACSR' 'PEC_#2AWG_ACSR' 'PEC_#2AWG_ACSR' 'PEC_#2AWG_ACSR']
New Line.K2 Phases=3 Bus1=08_A1.1.2.3 Bus2=09_1.1.2.3 Length=708.4 units=ft Spacing=PEC_PEC_23kV_TRIA_3P wires=['PEC_#2AWG_ACSR' 'PEC_#2AWG_ACSR' 'PEC_#2AWG_ACSR' 'PEC_#2AWG_ACSR']

/**********************************************************************************************/
New Transformer.VR1 Phases=3 Wingings=##### XHL=##### %LoadLoss=#####
~ Buses=[09_1.1.2.3 09_2.1.2.3]
~ kVs={##### #####]

New Regcontrol.VR1 Transformer=VR1 Winging=#####
~ Vreg= ##### Band=##### PTratio=##### CTPrim=##### R=##### X=#####
~ Delay=##### PTphase=#####

!Vreg=#####
/**********************************************************************************************/

New Line.L1 Phases=3 Bus1=09_2.1.2.3 Bus2=09_3.1.2.3 Length=2065 units=ft Spacing=PEC_PEC_23kV_VERT_3P wires=['PEC_#2AWG_ACSR' 'PEC_#2AWG_ACSR' 'PEC_#2AWG_ACSR' 'PEC_#4AWG_CHD']
New Line.L2 Phases=3 Bus1=09_3.1.2.3 Bus2=10_1.1.2.3 Length=885 units=ft Spacing=PEC_PEC_23kV_VERT_3P wires=['PEC_#2AWG_ACSR' 'PEC_#2AWG_ACSR' 'PEC_#2AWG_ACSR' 'PEC_#4AWG_CHD']
New Line.M1 Phases=3 Bus1=10_1.1.2.3 Bus2=10_2.1.2.3 Length=1160 units=ft Spacing=PEC_PEC_23kV_TRIA_3P wires=['PEC_#1/0AWG_ACSR' 'PEC_#1/0AWG_ACSR' 'PEC_#1/0AWG_ACSR' 'PEC_#4AWG_CHD']
New Line.M2 Phases=3 Bus1=10_2.1.2.3 Bus2=11_1.1.2.3 Length=290 units=ft Spacing=PEC_PEC_23kV_TRIA_3P wires=['PEC_#1/0AWG_ACSR' 'PEC_#1/0AWG_ACSR' 'PEC_#1/0AWG_ACSR' 'PEC_#4AWG_CHD']

New Line.N1 Phases=1 Bus1=11_1.1.2.3 Bus2=11_B1.1.2.3 Length=3172 units=ft Spacing=PEC_PEC_23kV_TRIA_1P wires=['PEC_#2AWG_ACSR' 'PEC_#2AWG_ACSR']
New Line.N2 Phases=1 Bus1=11_B1.1.2.3 Bus2=24_1.1.2.3 Length=793 units=ft Spacing=PEC_PEC_23kV_TRIA_1P wires=['PEC_#2AWG_ACSR' 'PEC_#2AWG_ACSR']









