New loadshape.LS_PhaseA npts=1440 sinterval=60 pmult=(0.817203 0.816422 0.815633 0.814853 0.814102 0.813401 0.812768 0.812222 0.811779 0.811454 0.811261 0.811210 0.811307 0.811556 0.811956 0.812504 0.813589 0.814786 0.816065 0.817392 0.818730 0.820042 0.821288 0.822431 0.823430 0.824249 0.824853 0.825210 0.825291 0.825071 0.824531 0.823050 0.821250 0.819148 0.816771 0.814147 0.811309 0.808294 0.805139 0.801887 0.798578 0.795255 0.791959 0.788733 0.785614 0.782639 0.780108 0.777775 0.775657 0.773766 0.772113 0.770702 0.769536 0.768612 0.767925 0.767468 0.767229 0.767194 0.767350 0.767677 0.768157 0.768590 0.769145 0.769809 0.770568 0.771409 0.772320 0.773288 0.774300 0.775347 0.776419 0.777506 0.778602 0.779699 0.780794 0.781883 0.782591 0.783304 0.784036 0.784802 0.785617 0.786496 0.787452 0.788496 0.789639 0.790888 0.792246 0.793715 0.795294 0.796975 0.798749 0.801137 0.803568 0.806001 0.808394 0.810701 0.812879 0.814882 0.816667 0.818193 0.819423 0.820324 0.820866 0.821028 0.820792 0.820149 0.818093 0.815671 0.812935 0.809940 0.806747 0.803421 0.800028 0.796634 0.793305 0.790106 0.787097 0.784334 0.781866 0.779738 0.777984 0.777525 0.777452 0.777739 0.778352 0.779253 0.780395 0.781727 0.783193 0.784738 0.786302 0.787826 0.789253 0.790530 0.791604 0.792430 0.792058 0.791401 0.790469 0.789276 0.787843 0.786197 0.784369 0.782394 0.780311 0.778160 0.775984 0.773826 0.771727 0.769731 0.767876 0.766512 0.765346 0.764396 0.763675 0.763192 0.762952 0.762956 0.763200 0.763676 0.764372 0.765271 0.766355 0.767599 0.768979 0.770465 0.771986 0.773556 0.775144 0.776718 0.778248 0.779703 0.781054 0.782272 0.783333 0.784213 0.784891 0.785353 0.785585 0.785578 0.785329 0.784376 0.783203 0.781836 0.780306 0.778645 0.776890 0.775076 0.773242 0.771426 0.769664 0.767993 0.766446 0.765055 0.763847 0.762846 0.762423 0.762228 0.762258 0.762507 0.762962 0.763608 0.764427 0.765397 0.766493 0.767689 0.768958 0.770271 0.771599 0.772914 0.774188 0.774915 0.775570 0.776150 0.776651 0.777075 0.777421 0.777694 0.777895 0.778030 0.778104 0.778122 0.778090 0.778013 0.777896 0.777746 0.777790 0.777799 0.777767 0.777688 0.777555 0.777363 0.777104 0.776773 0.776364 0.775873 0.775296 0.774631 0.773878 0.773037 0.772111 0.770676 0.769183 0.767658 0.766124 0.764609 0.763139 0.761740 0.760436 0.759252 0.758209 0.757326 0.756620 0.756105 0.755791 0.755684 0.756028 0.756571 0.757300 0.758197 0.759242 0.760411 0.761678 0.763017 0.764398 0.765794 0.767175 0.768511 0.769776 0.770943 0.771988 0.772549 0.772962 0.773224 0.773337 0.773303 0.773128 0.772823 0.772398 0.771866 0.771244 0.770548 0.769798 0.769012 0.768210 0.767415 0.766601 0.765836 0.765141 0.764538 0.764046 0.763684 0.763467 0.763412 0.763528 0.763826 0.764313 0.764992 0.765864 0.766928 0.768179 0.769622 0.771234 0.773001 0.774907 0.776936 0.779066 0.781277 0.783547 0.785851 0.788167 0.790470 0.792737 0.794944 0.797070 0.799095 0.800700 0.802180 0.803529 0.804748 0.805836 0.806794 0.807627 0.808340 0.808937 0.809426 0.809814 0.810109 0.810321 0.810457 0.810527 0.810718 0.810853 0.810935 0.810964 0.810943 0.810874 0.810759 0.810601 0.810404 0.810172 0.809910 0.809624 0.809322 0.809013 0.808705 0.807847 0.807036 0.806304 0.805687 0.805219 0.804930 0.804850 0.805006 0.805420 0.806111 0.807092 0.808372 0.809953 0.811833 0.814002 0.817079 0.820385 0.823870 0.827479 0.831152 0.834830 0.838452 0.841956 0.845284 0.848377 0.851184 0.853657 0.855753 0.857438 0.858684 0.858445 0.857778 0.856721 0.855318 0.853622 0.851689 0.849580 0.847356 0.845083 0.842825 0.840646 0.838604 0.836756 0.835154 0.833842 0.833668 0.833821 0.834293 0.835068 0.836124 0.837432 0.838960 0.840670 0.842519 0.844464 0.846460 0.848461 0.850420 0.852296 0.854046 0.854828 0.855446 0.855900 0.856197 0.856346 0.856359 0.856252 0.856042 0.855748 0.855392 0.854996 0.854580 0.854166 0.853775 0.853427 0.853491 0.853615 0.853800 0.854041 0.854335 0.854676 0.855055 0.855463 0.855889 0.856322 0.856751 0.857163 0.857547 0.857892 0.858187 0.858044 0.857849 0.857610 0.857337 0.857039 0.856727 0.856411 0.856102 0.855811 0.855548 0.855324 0.855146 0.855023 0.854961 0.854965 0.855083 0.855271 0.855527 0.855849 0.856232 0.856670 0.857155 0.857679 0.858232 0.858803 0.859382 0.859955 0.860511 0.861037 0.861522 0.861802 0.862025 0.862184 0.862277 0.862300 0.862251 0.862130 0.861937 0.861671 0.861336 0.860933 0.860468 0.859945 0.859369 0.858749 0.857971 0.857169 0.856357 0.855551 0.854764 0.854013 0.853311 0.852674 0.852115 0.851647 0.851283 0.851034 0.850910 0.850919 0.851069 0.851246 0.851577 0.852069 0.852726 0.853551 0.854543 0.855700 0.857019 0.858491 0.860109 0.861859 0.863729 0.865703 0.867763 0.869890 0.872049 0.874233 0.876419 0.878585 0.880707 0.882760 0.884722 0.886570 0.888282 0.889837 0.891216 0.892401 0.893379 0.894135 0.894660 0.894691 0.894489 0.894063 0.893421 0.892579 0.891552 0.890356 0.889011 0.887538 0.885957 0.884291 0.882562 0.880792 0.879003 0.877217 0.875491 0.873806 0.872180 0.870628 0.869165 0.867804 0.866554 0.865425 0.864425 0.863558 0.862828 0.862237 0.861787 0.861474 0.861298 0.860998 0.860835 0.860812 0.860932 0.861196 0.861603 0.862150 0.862833 0.863647 0.864582 0.865629 0.866778 0.868015 0.869325 0.870693 0.872273 0.873869 0.875457 0.877010 0.878504 0.879914 0.881216 0.882389 0.883412 0.884269 0.884945 0.885427 0.885709 0.885786 0.885658 0.884682 0.883535 0.882252 0.880872 0.879433 0.877977 0.876543 0.875170 0.873896 0.872755 0.871778 0.870991 0.870417 0.870070 0.869962 0.870811 0.871874 0.873115 0.874493 0.875963 0.877479 0.878991 0.880449 0.881802 0.883003 0.884005 0.884769 0.885255 0.885433 0.885280 0.883668 0.881739 0.879534 0.877098 0.874484 0.871746 0.868944 0.866137 0.863386 0.860749 0.858284 0.856044 0.854077 0.852427 0.851130 0.851122 0.851481 0.852184 0.853203 0.854502 0.856039 0.857770 0.859646 0.861614 0.863624 0.865622 0.867558 0.869382 0.871051 0.872522 0.872738 0.872732 0.872521 0.872124 0.871568 0.870882 0.870099 0.869253 0.868381 0.867518 0.866701 0.865963 0.865338 0.864854 0.864535 0.865089 0.865818 0.866709 0.867740 0.868890 0.870131 0.871435 0.872769 0.874104 0.875405 0.876640 0.877780 0.878795 0.879658 0.880347 0.880015 0.879506 0.878841 0.878045 0.877143 0.876166 0.875142 0.874102 0.873078 0.872099 0.871193 0.870384 0.869697 0.869151 0.868759 0.869159 0.869706 0.870379 0.871152 0.871994 0.872874 0.873759 0.874614 0.875406 0.876100 0.876665 0.877071 0.877292 0.877306 0.877095 0.875737 0.874170 0.872424 0.870537 0.868549 0.866502 0.864439 0.862405 0.860443 0.858595 0.856900 0.855395 0.854112 0.853077 0.852311 0.852604 0.853160 0.853953 0.854949 0.856111 0.857398 0.858766 0.860171 0.861565 0.862902 0.864139 0.865233 0.866146 0.866844 0.867297 0.866490 0.865438 0.864167 0.862711 0.861107 0.859395 0.857620 0.855824 0.854055 0.852356 0.850771 0.849340 0.848100 0.847084 0.846319 0.846511 0.846964 0.847659 0.848575 0.849682 0.850948 0.852335 0.853804 0.855313 0.856818 0.858275 0.859641 0.860875 0.861936 0.862789 0.862712 0.862393 0.861836 0.861049 0.860043 0.858833 0.857438 0.855879 0.854180 0.852366 0.850463 0.848499 0.846502 0.844498 0.842513 0.840815 0.839174 0.837602 0.836107 0.834698 0.833379 0.832155 0.831025 0.829990 0.829047 0.828192 0.827420 0.826725 0.826098 0.825532 0.824761 0.824044 0.823382 0.822776 0.822228 0.821736 0.821301 0.820922 0.820598 0.820328 0.820111 0.819943 0.819822 0.819746 0.819709 0.819655 0.819636 0.819648 0.819689 0.819755 0.819844 0.819951 0.820072 0.820202 0.820337 0.820472 0.820601 0.820721 0.820825 0.820908 0.820861 0.820789 0.820691 0.820568 0.820419 0.820246 0.820047 0.819825 0.819578 0.819309 0.819017 0.818703 0.818367 0.818011 0.817635 0.817096 0.816544 0.815986 0.815427 0.814874 0.814332 0.813806 0.813300 0.812817 0.812361 0.811933 0.811534 0.811163 0.810821 0.810506 0.810249 0.810013 0.809791 0.809578 0.809369 0.809156 0.808933 0.808696 0.808438 0.808154 0.807840 0.807493 0.807111 0.806691 0.806235 0.805325 0.804399 0.803475 0.802576 0.801720 0.800930 0.800223 0.799619 0.799133 0.798778 0.798567 0.798508 0.798606 0.798862 0.799275 0.800279 0.801409 0.802637 0.803929 0.805254 0.806577 0.807863 0.809077 0.810187 0.811162 0.811973 0.812596 0.813011 0.813201 0.813156 0.812063 0.810760 0.809286 0.807681 0.805990 0.804260 0.802540 0.800880 0.799329 0.797933 0.796737 0.795782 0.795105 0.794737 0.794702 0.795628 0.796893 0.798480 0.800362 0.802509 0.804884 0.807446 0.810150 0.812948 0.815792 0.818631 0.821413 0.824091 0.826615 0.828942 0.830415 0.831637 0.832600 0.833299 0.833734 0.833910 0.833835 0.833519 0.832979 0.832230 0.831294 0.830193 0.828948 0.827586 0.826130 0.824718 0.823258 0.821767 0.820266 0.818770 0.817297 0.815861 0.814474 0.813148 0.811892 0.810712 0.809614 0.808601 0.807674 0.806833 0.806046 0.805340 0.804712 0.804155 0.803664 0.803230 0.802847 0.802506 0.802198 0.801915 0.801649 0.801392 0.801139 0.800882 0.800618 0.799992 0.799367 0.798755 0.798171 0.797629 0.797142 0.796726 0.796394 0.796159 0.796031 0.796021 0.796137 0.796384 0.796764 0.797280 0.798116 0.799073 0.800135 0.801287 0.802509 0.803781 0.805079 0.806382 0.807665 0.808905 0.810078 0.811161 0.812132 0.812973 0.813664 0.813936 0.814042 0.813980 0.813753 0.813366 0.812826 0.812145 0.811333 0.810406 0.809380 0.808273 0.807105 0.805896 0.804667 0.803441 0.801983 0.800581 0.799265 0.798067 0.797015 0.796133 0.795447 0.794975 0.794733 0.794734 0.794984 0.795486 0.796239 0.797235 0.798461 0.800303 0.802323 0.804481 0.806734 0.809036 0.811338 0.813595 0.815758 0.817783 0.819626 0.821248 0.822615 0.823695 0.824466 0.824909 0.824179 0.823139 0.821826 0.820279 0.818547 0.816679 0.814730 0.812756 0.810813 0.808957 0.807243 0.805725 0.804451 0.803465 0.802807 0.803117 0.803790 0.804822 0.806202 0.807915 0.809938 0.812244 0.814801 0.817574 0.820525 0.823614 0.826798 0.830036 0.833286 0.836507 0.839062 0.841538 0.843925 0.846214 0.848402 0.850486 0.852465 0.854342 0.856120 0.857806 0.859405 0.860926 0.862376 0.863765 0.865101 0.866616 0.868085 0.869509 0.870884 0.872209 0.873482 0.874700 0.875860 0.876959 0.877995 0.878963 0.879862 0.880688 0.881441 0.882118 0.882295 0.882412 0.882484 0.882528 0.882559 0.882591 0.882639 0.882712 0.882819 0.882968 0.883161 0.883398 0.883678 0.883994 0.884336 0.885064 0.885776 0.886438 0.887016 0.887472 0.887769 0.887871 0.887741 0.887346 0.886652 0.885631 0.884259 0.882516 0.880387 0.877862 0.874261 0.870292 0.865989 0.861392 0.856549 0.851506 0.846316 0.841033 0.835712 0.830408 0.825176 0.820067 0.815132 0.810417 0.805965 0.802248 0.798846 0.795770 0.793025 0.790609 0.788517 0.786740 0.785263 0.784067 0.783131 0.782431 0.781940 0.781632 0.781476 0.781444 0.781038 0.780718 0.780475 0.780301 0.780190 0.780134 0.780128 0.780167 0.780246 0.780363 0.780512 0.780691 0.780896 0.781125 0.781372 0.781791 0.782216 0.782636 0.783041 0.783421 0.783766 0.784067 0.784313 0.784498 0.784614 0.784654 0.784614 0.784489 0.784278 0.783979 0.783249 0.782449 0.781594 0.780704 0.779795 0.778887 0.777998 0.777145 0.776344 0.775610 0.774957 0.774394 0.773931 0.773574 0.773324 0.773354 0.773484 0.773700 0.773988 0.774332 0.774712 0.775107 0.775495 0.775855 0.776162 0.776395 0.776531 0.776549 0.776429 0.776154 0.775368 0.774412 0.773289 0.772004 0.770565 0.768983 0.767268 0.765436 0.763500 0.761477 0.759384 0.757240 0.755063 0.752871 0.750683 0.748560 0.746475 0.744441 0.742472 0.740581 0.738780 0.737077 0.735483 0.734005 0.732647 0.731415 0.730312 0.729340 0.728498 0.727785 0.727075 0.726494 0.726043 0.725722 0.725530 0.725463 0.725519 0.725693 0.725979 0.726371 0.726862 0.727444 0.728110 0.728850 0.729654 0.730414 0.731224 0.732077 0.732969 0.733891 0.734838 0.735804 0.736782 0.737765 0.738746 0.739718 0.740675 0.741610 0.742517 0.743387 0.744103 0.744774 0.745400 0.745979 0.746508 0.746987 0.747414 0.747785 0.748100 0.748356 0.748550 0.748678 0.748738 0.748727 0.748641 0.748468 0.748213 0.747873 0.747445 0.746925 0.746311 0.745600 0.744791 0.743881 0.742872 0.741763 0.740555 0.739250 0.737852 0.736366 0.734593 0.732752 0.730859 0.728930 0.726982 0.725034 0.723102 0.721204 0.719357 0.717577 0.715880 0.714279 0.712788 0.711417 0.710177 0.709104 0.708174 0.707390 0.706754 0.706263 0.705916 0.705708 0.705632 0.705680 0.705843 0.706108 0.706466 0.706902 0.707402 0.707952 0.708331 0.708739 0.709168 0.709610 0.710059 0.710507 0.710945 0.711365 0.711759 0.712118 0.712433 0.712695 0.712895 0.713023 0.713069 0.713109 0.713046 0.712868 0.712563 0.712121 0.711530 0.710783 0.709872 0.708791 0.707536 0.706105 0.704499 0.702720 0.700772 0.698662 0.696090 0.693390 0.690588 0.687712 0.684789 0.681850 0.678925 0.676042 0.673232 0.670521 0.667936 0.665500 0.663236 0.661163 0.659295 0.657767 0.656462 0.655381 0.654522 0.653877 0.653439 0.653195 0.653130 0.653227 0.653466 0.653827 0.654286 0.654819 0.655404 0.656015 0.656493 0.656956 0.657387 0.657768 0.658086 0.658326 0.658476 0.658527 0.658471 0.658303 0.658018 0.657615 0.657095 0.656461 0.655719 0.654590 0.653378 0.652108 0.650800 0.649479 0.648169 0.646893 0.645672 0.644528 0.643479 0.642542 0.641730 0.641054 0.640521 ) qmult=(0.431382 0.431506 0.431638 0.431785 0.431952 0.432148 0.432375 0.432640 0.432945 0.433292 0.433683 0.434117 0.434593 0.435107 0.435654 0.436229 0.436922 0.437624 0.438322 0.439003 0.439652 0.440255 0.440798 0.441266 0.441646 0.441926 0.442095 0.442143 0.442062 0.441847 0.441493 0.440703 0.439785 0.438755 0.437628 0.436423 0.435158 0.433855 0.432533 0.431213 0.429915 0.428660 0.427465 0.426348 0.425325 0.424408 0.423808 0.423326 0.422963 0.422715 0.422577 0.422540 0.422597 0.422736 0.422946 0.423214 0.423526 0.423871 0.424233 0.424600 0.424958 0.425058 0.425137 0.425195 0.425233 0.425253 0.425257 0.425249 0.425233 0.425213 0.425196 0.425185 0.425187 0.425207 0.425251 0.425323 0.425455 0.425622 0.425826 0.426069 0.426352 0.426674 0.427035 0.427432 0.427865 0.428328 0.428819 0.429333 0.429865 0.430409 0.430958 0.431490 0.432017 0.432530 0.433026 0.433496 0.433936 0.434340 0.434702 0.435018 0.435284 0.435496 0.435652 0.435750 0.435788 0.435768 0.435508 0.435200 0.434853 0.434477 0.434085 0.433687 0.433294 0.432917 0.432567 0.432252 0.431980 0.431760 0.431597 0.431495 0.431456 0.431619 0.431841 0.432114 0.432431 0.432779 0.433149 0.433528 0.433903 0.434262 0.434591 0.434878 0.435110 0.435277 0.435368 0.435374 0.435036 0.434609 0.434099 0.433513 0.432857 0.432143 0.431379 0.430575 0.429743 0.428894 0.428037 0.427184 0.426345 0.425529 0.424743 0.424125 0.423545 0.423004 0.422500 0.422031 0.421592 0.421180 0.420790 0.420415 0.420051 0.419690 0.419327 0.418955 0.418569 0.418163 0.417506 0.416829 0.416138 0.415437 0.414735 0.414035 0.413346 0.412674 0.412024 0.411401 0.410812 0.410259 0.409748 0.409279 0.408855 0.408634 0.408451 0.408300 0.408171 0.408056 0.407946 0.407832 0.407705 0.407556 0.407378 0.407163 0.406907 0.406605 0.406253 0.405851 0.405064 0.404243 0.403404 0.402565 0.401745 0.400963 0.400239 0.399592 0.399038 0.398596 0.398279 0.398102 0.398074 0.398205 0.398498 0.399251 0.400157 0.401203 0.402370 0.403639 0.404989 0.406397 0.407838 0.409290 0.410727 0.412126 0.413464 0.414721 0.415876 0.416914 0.417402 0.417761 0.418001 0.418130 0.418160 0.418106 0.417982 0.417805 0.417592 0.417360 0.417127 0.416909 0.416720 0.416577 0.416490 0.416759 0.417092 0.417486 0.417933 0.418426 0.418954 0.419507 0.420073 0.420638 0.421191 0.421717 0.422206 0.422644 0.423022 0.423330 0.423191 0.422983 0.422714 0.422397 0.422042 0.421663 0.421274 0.420888 0.420518 0.420177 0.419878 0.419632 0.419449 0.419336 0.419301 0.419609 0.419992 0.420440 0.420941 0.421485 0.422056 0.422642 0.423227 0.423797 0.424338 0.424836 0.425280 0.425657 0.425959 0.426178 0.425926 0.425598 0.425207 0.424770 0.424303 0.423825 0.423355 0.422912 0.422514 0.422180 0.421928 0.421773 0.421729 0.421809 0.422022 0.422630 0.423372 0.424241 0.425226 0.426314 0.427490 0.428737 0.430039 0.431374 0.432726 0.434073 0.435397 0.436679 0.437901 0.439047 0.439800 0.440461 0.441032 0.441515 0.441914 0.442237 0.442489 0.442681 0.442821 0.442921 0.442990 0.443041 0.443085 0.443133 0.443196 0.443412 0.443658 0.443938 0.444253 0.444607 0.445001 0.445437 0.445913 0.446430 0.446986 0.447582 0.448214 0.448883 0.449584 0.450318 0.450845 0.451409 0.452019 0.452680 0.453401 0.454188 0.455045 0.455978 0.456989 0.458081 0.459255 0.460508 0.461838 0.463242 0.464712 0.466421 0.468173 0.469949 0.471732 0.473500 0.475235 0.476916 0.478523 0.480037 0.481441 0.482719 0.483855 0.484837 0.485655 0.486302 0.486430 0.486395 0.486210 0.485892 0.485460 0.484935 0.484339 0.483695 0.483025 0.482352 0.481700 0.481089 0.480541 0.480072 0.479700 0.479683 0.479778 0.479984 0.480299 0.480715 0.481227 0.481822 0.482491 0.483220 0.483996 0.484802 0.485626 0.486450 0.487260 0.488042 0.488442 0.488801 0.489120 0.489400 0.489646 0.489860 0.490045 0.490207 0.490349 0.490473 0.490584 0.490683 0.490772 0.490851 0.490919 0.491214 0.491485 0.491718 0.491899 0.492015 0.492050 0.491990 0.491822 0.491533 0.491111 0.490546 0.489830 0.488956 0.487922 0.486726 0.484993 0.483118 0.481122 0.479029 0.476863 0.474651 0.472419 0.470194 0.468003 0.465873 0.463827 0.461890 0.460081 0.458419 0.456920 0.455842 0.454939 0.454206 0.453637 0.453221 0.452946 0.452797 0.452757 0.452807 0.452928 0.453098 0.453296 0.453501 0.453692 0.453850 0.453697 0.453486 0.453210 0.452865 0.452450 0.451963 0.451407 0.450782 0.450095 0.449349 0.448552 0.447712 0.446836 0.445935 0.445017 0.444093 0.443172 0.442266 0.441384 0.440536 0.439732 0.438980 0.438288 0.437664 0.437113 0.436639 0.436248 0.435941 0.435719 0.435583 0.435547 0.435593 0.435716 0.435910 0.436168 0.436485 0.436851 0.437258 0.437697 0.438158 0.438633 0.439111 0.439585 0.440044 0.440482 0.440657 0.440805 0.440928 0.441032 0.441119 0.441194 0.441260 0.441322 0.441382 0.441445 0.441511 0.441581 0.441657 0.441738 0.441820 0.442127 0.442421 0.442687 0.442913 0.443082 0.443181 0.443195 0.443111 0.442918 0.442603 0.442159 0.441580 0.440860 0.439998 0.438995 0.437424 0.435740 0.433969 0.432140 0.430284 0.428430 0.426611 0.424858 0.423201 0.421669 0.420290 0.419088 0.418085 0.417299 0.416743 0.416779 0.417048 0.417539 0.418236 0.419119 0.420165 0.421351 0.422647 0.424026 0.425457 0.426910 0.428355 0.429761 0.431101 0.432348 0.433109 0.433746 0.434254 0.434632 0.434881 0.435004 0.435006 0.434896 0.434683 0.434378 0.433993 0.433543 0.433041 0.432501 0.431940 0.431469 0.430999 0.430541 0.430101 0.429689 0.429311 0.428972 0.428677 0.428429 0.428230 0.428080 0.427979 0.427925 0.427916 0.427947 0.427951 0.427988 0.428054 0.428145 0.428255 0.428378 0.428510 0.428642 0.428770 0.428885 0.428982 0.429054 0.429095 0.429099 0.429062 0.428879 0.428649 0.428375 0.428058 0.427700 0.427303 0.426872 0.426411 0.425923 0.425413 0.424886 0.424348 0.423803 0.423256 0.422713 0.422163 0.421627 0.421110 0.420618 0.420155 0.419725 0.419332 0.418979 0.418669 0.418404 0.418185 0.418013 0.417890 0.417813 0.417784 0.417741 0.417745 0.417795 0.417891 0.418032 0.418216 0.418443 0.418708 0.419010 0.419345 0.419710 0.420100 0.420510 0.420937 0.421375 0.421750 0.422128 0.422508 0.422886 0.423260 0.423626 0.423982 0.424325 0.424651 0.424957 0.425240 0.425497 0.425724 0.425917 0.426074 0.426165 0.426215 0.426222 0.426183 0.426098 0.425964 0.425783 0.425552 0.425271 0.424942 0.424563 0.424138 0.423666 0.423151 0.422594 0.421945 0.421264 0.420557 0.419830 0.419091 0.418346 0.417603 0.416871 0.416155 0.415465 0.414808 0.414190 0.413619 0.413103 0.412647 0.412120 0.411669 0.411306 0.411037 0.410873 0.410818 0.410879 0.411058 0.411357 0.411776 0.412313 0.412963 0.413721 0.414578 0.415524 0.416711 0.417955 0.419236 0.420531 0.421817 0.423070 0.424268 0.425388 0.426409 0.427310 0.428075 0.428687 0.429133 0.429401 0.429486 0.429011 0.428360 0.427552 0.426605 0.425542 0.424385 0.423161 0.421894 0.420612 0.419339 0.418103 0.416926 0.415832 0.414841 0.413970 0.413523 0.413213 0.413038 0.412992 0.413068 0.413255 0.413542 0.413913 0.414354 0.414846 0.415373 0.415917 0.416459 0.416983 0.417472 0.417587 0.417650 0.417662 0.417624 0.417539 0.417411 0.417245 0.417046 0.416822 0.416580 0.416325 0.416066 0.415810 0.415562 0.415331 0.415236 0.415163 0.415109 0.415073 0.415053 0.415046 0.415048 0.415055 0.415063 0.415066 0.415060 0.415039 0.414999 0.414934 0.414840 0.414592 0.414312 0.414002 0.413665 0.413303 0.412920 0.412519 0.412104 0.411679 0.411249 0.410818 0.410391 0.409973 0.409569 0.409182 0.408750 0.408347 0.407979 0.407652 0.407372 0.407143 0.406969 0.406853 0.406797 0.406802 0.406868 0.406994 0.407178 0.407415 0.407703 0.408070 0.408475 0.408908 0.409360 0.409823 0.410286 0.410738 0.411170 0.411572 0.411935 0.412250 0.412508 0.412702 0.412827 0.412877 0.412681 0.412411 0.412073 0.411674 0.411222 0.410727 0.410197 0.409642 0.409074 0.408502 0.407938 0.407391 0.406871 0.406387 0.405948 0.405612 0.405333 0.405114 0.404958 0.404865 0.404835 0.404869 0.404963 0.405114 0.405319 0.405573 0.405870 0.406205 0.406570 0.406959 0.407240 0.407535 0.407842 0.408160 0.408484 0.408812 0.409141 0.409469 0.409792 0.410107 0.410411 0.410700 0.410970 0.411219 0.411442 0.411687 0.411897 0.412068 0.412195 0.412273 0.412299 0.412268 0.412178 0.412026 0.411813 0.411537 0.411200 0.410803 0.410350 0.409844 0.409072 0.408266 0.407444 0.406620 0.405810 0.405031 0.404298 0.403626 0.403027 0.402516 0.402101 0.401791 0.401593 0.401511 0.401547 0.401881 0.402322 0.402856 0.403469 0.404143 0.404860 0.405600 0.406342 0.407066 0.407750 0.408374 0.408917 0.409360 0.409687 0.409881 0.409659 0.409290 0.408776 0.408120 0.407328 0.406408 0.405369 0.404222 0.402980 0.401657 0.400265 0.398821 0.397339 0.395834 0.394320 0.392921 0.391537 0.390176 0.388847 0.387556 0.386309 0.385110 0.383965 0.382874 0.381842 0.380868 0.379954 0.379099 0.378302 0.377562 0.376725 0.375947 0.375231 0.374579 0.373995 0.373479 0.373033 0.372656 0.372349 0.372109 0.371935 0.371824 0.371771 0.371772 0.371823 0.371990 0.372190 0.372414 0.372651 0.372891 0.373124 0.373339 0.373527 0.373679 0.373786 0.373841 0.373837 0.373771 0.373638 0.373436 0.372927 0.372359 0.371743 0.371092 0.370418 0.369737 0.369061 0.368406 0.367784 0.367208 0.366689 0.366239 0.365866 0.365577 0.365377 0.365466 0.365641 0.365893 0.366212 0.366585 0.366998 0.367439 0.367891 0.368339 0.368767 0.369160 0.369503 0.369783 0.369987 0.370105 0.369824 0.369452 0.368996 0.368464 0.367867 0.367216 0.366522 0.365798 0.365060 0.364319 0.363590 0.362885 0.362218 0.361600 0.361043 0.360670 0.360370 0.360143 0.359990 0.359911 0.359902 0.359959 0.360079 0.360255 0.360479 0.360746 0.361046 0.361372 0.361716 0.362069 0.362387 0.362702 0.363009 0.363303 0.363582 0.363844 0.364087 0.364313 0.364524 0.364722 0.364913 0.365103 0.365301 0.365515 0.365756 0.365727 0.365760 0.365882 0.366117 0.366491 0.367027 0.367748 0.368674 0.369823 0.371209 0.372843 0.374733 0.376881 0.379286 0.381941 0.385279 0.388825 0.392544 0.396394 0.400334 0.404319 0.408303 0.412240 0.416084 0.419790 0.423316 0.426623 0.429674 0.432439 0.434891 0.436401 0.437584 0.438456 0.439034 0.439342 0.439408 0.439261 0.438936 0.438468 0.437892 0.437245 0.436564 0.435882 0.435233 0.434646 0.434533 0.434517 0.434601 0.434786 0.435068 0.435440 0.435891 0.436408 0.436973 0.437569 0.438174 0.438765 0.439320 0.439813 0.440222 0.440308 0.440271 0.440099 0.439778 0.439299 0.438652 0.437831 0.436830 0.435647 0.434281 0.432733 0.431008 0.429112 0.427052 0.424839 0.422353 0.419746 0.417037 0.414250 0.411408 0.408534 0.405652 0.402787 0.399962 0.397199 0.394519 0.391942 0.389486 0.387166 0.384997 0.383178 0.381521 0.380026 0.378689 0.377503 0.376462 0.375555 0.374773 0.374102 0.373532 0.373048 0.372638 0.372289 0.371989 0.371726 0.371172 0.370648 0.370159 0.369711 0.369308 0.368959 0.368669 0.368448 0.368301 0.368236 0.368257 0.368372 0.368583 0.368892 0.369302 0.370030 0.370848 0.371742 0.372699 0.373705 0.374743 0.375798 0.376853 0.377891 0.378895 0.379850 0.380741 0.381553 0.382274 0.382893 0.383089 0.383179 0.383169 0.383070 0.382890 0.382640 0.382331 0.381977 0.381590 0.381181 0.380763 0.380346 0.379940 0.379555 0.379198 0.379074 0.378980 0.378909 0.378857 0.378813 0.378769 0.378715 0.378640 0.378533 0.378383 0.378178 0.377909 0.377566 0.377140 0.376626 0.375768 0.374822 0.373796 0.372698 0.371538 0.370330 0.369085 0.367817 0.366541 0.365270 0.364021 0.362806 0.361641 0.360538 0.359511 0.358605 0.357796 0.357089 0.356492 0.356010 0.355646 0.355401 0.355275 0.355268 0.355374 0.355591 0.355911 0.356328 0.356832 0.357414 0.358117 0.358874 0.359671 0.360495 0.361332 0.362167 0.362987 0.363781 0.364535 0.365242 0.365890 0.366475 0.366990 0.367432 0.367801 0.367751 0.367644 0.367497 0.367331 0.367164 0.367016 0.366910 0.366862 0.366892 0.367017 0.367250 0.367603 0.368085 0.368703 0.369459 0.370758 0.372173 0.373680 0.375253 0.376862 0.378476 0.380065 0.381594 0.383033 0.384350 0.385516 0.386503 0.387287 0.387846 0.388164 0.387680 0.386954 0.386004 0.384850 0.383517 0.382034 0.380428 0.378733 0.376981 0.375205 0.373438 0.371712 0.370059 0.368506 0.367079 0.366195 0.365465 0.364888 0.364463 0.364185 0.364043 0.364029 0.364127 0.364324 0.364601 0.364943 0.365329 0.365743 0.366166 0.366581 0.366626 0.366645 0.366639 0.366610 0.366560 0.366493 0.366414 0.366329 0.366243 0.366164 0.366098 0.366052 0.366033 0.366046 0.366098 0.366296 0.366536 0.366816 0.367135 0.367489 0.367873 0.368283 0.368713 0.369155 0.369603 0.370047 0.370481 0.370895 0.371281 0.371630 0.371879 0.372077 0.372218 0.372296 0.372306 0.372246 0.372110 0.371897 0.371605 0.371233 0.370782 0.370253 0.369648 0.368970 0.368224 0.367282 0.366288 0.365255 0.364195 0.363121 0.362047 0.360987 0.359952 0.358955 0.358007 0.357120 0.356301 0.355561 0.354904 0.354336 0.353947 0.353649 0.353438 0.353311 0.353260 0.353279 0.353359 0.353491 0.353663 0.353866 0.354088 0.354318 0.354544 0.354757 0.354946 0.354964 0.354945 0.354888 0.354791 0.354654 0.354477 0.354263 0.354012 0.353728 0.353415 0.353077 0.352718 0.352344 0.351960 0.351571 0.351139 0.350714 0.350304 0.349915 0.349553 0.349224 0.348932 0.348681 0.348475 0.348314 0.348201 0.348134 0.348113 0.348135 )
