New loadshape.LS_PhaseA npts=1440 sinterval=60 pmult=(0.505725 0.505521 0.505451 0.505498 0.505638 0.505848 0.506102 0.506374 0.506637 0.506866 0.507035 0.507119 0.507096 0.506946 0.506653 0.506201 0.505117 0.503875 0.502490 0.500978 0.499360 0.497658 0.495897 0.494102 0.492298 0.490513 0.488771 0.487098 0.485518 0.484051 0.482716 0.481830 0.481094 0.480507 0.480066 0.479762 0.479587 0.479528 0.479572 0.479702 0.479902 0.480153 0.480437 0.480735 0.481028 0.481298 0.481175 0.481011 0.480803 0.480553 0.480260 0.479927 0.479556 0.479151 0.478715 0.478252 0.477764 0.477257 0.476733 0.476195 0.475644 0.475288 0.474915 0.474517 0.474086 0.473614 0.473093 0.472516 0.471874 0.471161 0.470372 0.469501 0.468547 0.467507 0.466382 0.465173 0.463524 0.461816 0.460071 0.458310 0.456559 0.454841 0.453180 0.451600 0.450122 0.448767 0.447555 0.446501 0.445620 0.444922 0.444415 0.444389 0.444548 0.444877 0.445360 0.445977 0.446706 0.447522 0.448401 0.449317 0.450242 0.451150 0.452015 0.452812 0.453518 0.454112 0.454193 0.454143 0.453963 0.453656 0.453230 0.452692 0.452054 0.451327 0.450525 0.449661 0.448752 0.447811 0.446854 0.445895 0.444948 0.444214 0.443509 0.442836 0.442196 0.441590 0.441017 0.440475 0.439962 0.439473 0.439005 0.438552 0.438110 0.437673 0.437235 0.436792 0.436135 0.435471 0.434806 0.434143 0.433487 0.432843 0.432216 0.431611 0.431033 0.430487 0.429976 0.429505 0.429076 0.428692 0.428356 0.428093 0.427878 0.427710 0.427585 0.427503 0.427459 0.427449 0.427468 0.427512 0.427574 0.427650 0.427732 0.427815 0.427893 0.427959 0.427913 0.427848 0.427762 0.427655 0.427525 0.427372 0.427196 0.426995 0.426772 0.426524 0.426254 0.425961 0.425647 0.425311 0.424956 0.424552 0.424130 0.423695 0.423249 0.422794 0.422332 0.421866 0.421398 0.420930 0.420465 0.420003 0.419547 0.419098 0.418657 0.418227 0.417727 0.417243 0.416777 0.416333 0.415915 0.415526 0.415167 0.414841 0.414549 0.414293 0.414072 0.413886 0.413735 0.413617 0.413531 0.413479 0.413453 0.413451 0.413468 0.413501 0.413546 0.413599 0.413655 0.413711 0.413764 0.413808 0.413843 0.413864 0.413870 0.413859 0.413670 0.413470 0.413264 0.413060 0.412865 0.412685 0.412528 0.412400 0.412308 0.412258 0.412253 0.412298 0.412396 0.412549 0.412757 0.413121 0.413534 0.413989 0.414477 0.414991 0.415521 0.416056 0.416587 0.417103 0.417594 0.418050 0.418461 0.418820 0.419118 0.419350 0.419255 0.419094 0.418874 0.418604 0.418292 0.417949 0.417584 0.417209 0.416832 0.416464 0.416115 0.415792 0.415503 0.415254 0.415051 0.415082 0.415157 0.415270 0.415414 0.415579 0.415756 0.415937 0.416110 0.416267 0.416398 0.416495 0.416549 0.416554 0.416505 0.416397 0.415932 0.415418 0.414869 0.414300 0.413725 0.413163 0.412629 0.412142 0.411717 0.411372 0.411123 0.410984 0.410968 0.411087 0.411349 0.411882 0.412565 0.413397 0.414373 0.415486 0.416726 0.418084 0.419545 0.421095 0.422718 0.424397 0.426114 0.427850 0.429585 0.431301 0.432868 0.434384 0.435835 0.437208 0.438494 0.439680 0.440760 0.441725 0.442570 0.443291 0.443885 0.444352 0.444693 0.444910 0.445009 0.444883 0.444656 0.444343 0.443958 0.443518 0.443038 0.442537 0.442032 0.441541 0.441080 0.440666 0.440316 0.440043 0.439862 0.439784 0.439858 0.440053 0.440377 0.440833 0.441423 0.442149 0.443009 0.444001 0.445119 0.446358 0.447711 0.449169 0.450723 0.452362 0.454076 0.455720 0.457421 0.459170 0.460961 0.462786 0.464637 0.466507 0.468388 0.470271 0.472150 0.474017 0.475864 0.477684 0.479470 0.481215 0.482894 0.484521 0.486090 0.487598 0.489041 0.490415 0.491718 0.492948 0.494103 0.495183 0.496187 0.497116 0.497971 0.498754 0.499467 0.500011 0.500495 0.500928 0.501320 0.501677 0.502010 0.502328 0.502638 0.502950 0.503272 0.503611 0.503974 0.504367 0.504795 0.505264 0.505769 0.506320 0.506921 0.507572 0.508275 0.509029 0.509832 0.510683 0.511579 0.512517 0.513493 0.514503 0.515542 0.516607 0.517691 0.518654 0.519633 0.520629 0.521641 0.522672 0.523721 0.524790 0.525879 0.526987 0.528115 0.529264 0.530431 0.531617 0.532820 0.534038 0.535299 0.536570 0.537849 0.539131 0.540414 0.541693 0.542965 0.544226 0.545475 0.546707 0.547920 0.549114 0.550286 0.551436 0.552564 0.553460 0.554344 0.555228 0.556122 0.557037 0.557984 0.558973 0.560014 0.561115 0.562286 0.563532 0.564858 0.566269 0.567765 0.569347 0.571168 0.573064 0.575023 0.577033 0.579080 0.581149 0.583224 0.585290 0.587331 0.589330 0.591275 0.593149 0.594941 0.596639 0.598233 0.599335 0.600335 0.601243 0.602072 0.602836 0.603549 0.604226 0.604883 0.605533 0.606191 0.606869 0.607580 0.608332 0.609133 0.609989 0.611219 0.612495 0.613803 0.615128 0.616453 0.617758 0.619025 0.620234 0.621366 0.622403 0.623327 0.624122 0.624776 0.625275 0.625613 0.625260 0.624758 0.624128 0.623392 0.622577 0.621710 0.620818 0.619930 0.619073 0.618276 0.617563 0.616958 0.616483 0.616156 0.615992 0.616386 0.616948 0.617667 0.618530 0.619519 0.620616 0.621799 0.623044 0.624329 0.625629 0.626920 0.628178 0.629381 0.630509 0.631544 0.631997 0.632348 0.632605 0.632779 0.632884 0.632937 0.632954 0.632955 0.632959 0.632987 0.633060 0.633195 0.633414 0.633733 0.634169 0.634940 0.635845 0.636886 0.638063 0.639373 0.640811 0.642371 0.644042 0.645816 0.647679 0.649619 0.651623 0.653674 0.655757 0.657858 0.659651 0.661443 0.663231 0.665012 0.666784 0.668544 0.670291 0.672020 0.673730 0.675416 0.677074 0.678701 0.680291 0.681838 0.683337 0.685007 0.686607 0.688120 0.689532 0.690826 0.691989 0.693008 0.693872 0.694571 0.695098 0.695450 0.695625 0.695624 0.695452 0.695119 0.694057 0.692882 0.691633 0.690353 0.689084 0.687869 0.686753 0.685777 0.684978 0.684395 0.684059 0.683997 0.684234 0.684784 0.685660 0.687410 0.689468 0.691802 0.694377 0.697155 0.700091 0.703138 0.706246 0.709365 0.712443 0.715430 0.718278 0.720940 0.723374 0.725542 0.726743 0.727644 0.728249 0.728568 0.728615 0.728410 0.727976 0.727340 0.726533 0.725587 0.724535 0.723413 0.722255 0.721097 0.719972 0.719172 0.718457 0.717841 0.717340 0.716966 0.716726 0.716626 0.716669 0.716855 0.717181 0.717640 0.718226 0.718927 0.719732 0.720627 0.721430 0.722299 0.723223 0.724193 0.725197 0.726223 0.727260 0.728295 0.729318 0.730318 0.731285 0.732211 0.733086 0.733904 0.734659 0.735192 0.735660 0.736071 0.736428 0.736740 0.737015 0.737262 0.737491 0.737711 0.737933 0.738168 0.738426 0.738717 0.739050 0.739434 0.739823 0.740279 0.740811 0.741425 0.742127 0.742920 0.743806 0.744786 0.745858 0.747020 0.748266 0.749591 0.750986 0.752442 0.753948 0.755470 0.757019 0.758581 0.760144 0.761692 0.763213 0.764693 0.766116 0.767470 0.768743 0.769923 0.770999 0.771962 0.772805 0.773522 0.773863 0.774081 0.774187 0.774192 0.774108 0.773949 0.773731 0.773467 0.773174 0.772868 0.772564 0.772276 0.772020 0.771809 0.771653 0.771642 0.771703 0.771844 0.772065 0.772370 0.772759 0.773230 0.773780 0.774407 0.775105 0.775870 0.776693 0.777569 0.778490 0.779449 0.780170 0.780923 0.781713 0.782543 0.783414 0.784330 0.785292 0.786302 0.787360 0.788465 0.789618 0.790814 0.792051 0.793325 0.794630 0.796036 0.797455 0.798876 0.800287 0.801675 0.803028 0.804333 0.805576 0.806745 0.807830 0.808818 0.809701 0.810471 0.811121 0.811647 0.811788 0.811811 0.811728 0.811551 0.811297 0.810980 0.810617 0.810226 0.809825 0.809431 0.809063 0.808737 0.808471 0.808281 0.808180 0.808161 0.808256 0.808477 0.808830 0.809324 0.809961 0.810745 0.811675 0.812748 0.813961 0.815306 0.816775 0.818357 0.820041 0.821812 0.823609 0.825465 0.827365 0.829293 0.831235 0.833172 0.835091 0.836974 0.838807 0.840575 0.842266 0.843867 0.845368 0.846760 0.848037 0.848919 0.849689 0.850354 0.850925 0.851416 0.851839 0.852208 0.852538 0.852842 0.853135 0.853431 0.853741 0.854077 0.854450 0.854867 0.855416 0.856018 0.856673 0.857378 0.858131 0.858925 0.859754 0.860608 0.861480 0.862356 0.863228 0.864082 0.864907 0.865691 0.866422 0.866910 0.867331 0.867683 0.867966 0.868180 0.868324 0.868401 0.868414 0.868367 0.868264 0.868111 0.867915 0.867684 0.867424 0.867146 0.866650 0.866162 0.865699 0.865280 0.864921 0.864640 0.864451 0.864368 0.864402 0.864565 0.864862 0.865300 0.865880 0.866604 0.867467 0.868629 0.869911 0.871297 0.872766 0.874298 0.875871 0.877463 0.879049 0.880607 0.882114 0.883548 0.884889 0.886119 0.887221 0.888182 0.888522 0.888721 0.888793 0.888753 0.888621 0.888415 0.888157 0.887869 0.887573 0.887291 0.887043 0.886850 0.886730 0.886699 0.886770 0.887208 0.887757 0.888413 0.889168 0.890014 0.890937 0.891923 0.892957 0.894021 0.895098 0.896168 0.897213 0.898214 0.899155 0.900018 0.900392 0.900676 0.900873 0.900989 0.901031 0.901006 0.900924 0.900793 0.900625 0.900428 0.900214 0.899992 0.899771 0.899561 0.899369 0.899293 0.899243 0.899221 0.899226 0.899256 0.899308 0.899380 0.899467 0.899562 0.899661 0.899757 0.899842 0.899912 0.899958 0.899974 0.899726 0.899445 0.899138 0.898807 0.898459 0.898098 0.897729 0.897358 0.896990 0.896629 0.896281 0.895949 0.895637 0.895348 0.895084 0.894798 0.894542 0.894319 0.894129 0.893975 0.893855 0.893768 0.893713 0.893687 0.893686 0.893706 0.893743 0.893791 0.893844 0.893896 0.893835 0.893764 0.893682 0.893586 0.893474 0.893344 0.893192 0.893018 0.892819 0.892594 0.892340 0.892056 0.891742 0.891396 0.891019 0.890457 0.889869 0.889265 0.888649 0.888031 0.887417 0.886814 0.886229 0.885668 0.885137 0.884641 0.884183 0.883769 0.883399 0.883076 0.882744 0.882461 0.882229 0.882046 0.881913 0.881826 0.881784 0.881782 0.881815 0.881878 0.881965 0.882069 0.882184 0.882301 0.882413 0.882418 0.882407 0.882377 0.882325 0.882248 0.882144 0.882010 0.881845 0.881647 0.881415 0.881149 0.880848 0.880515 0.880149 0.879752 0.879122 0.878474 0.877820 0.877170 0.876536 0.875928 0.875356 0.874828 0.874353 0.873936 0.873582 0.873295 0.873075 0.872921 0.872832 0.872857 0.872934 0.873051 0.873195 0.873354 0.873512 0.873654 0.873763 0.873821 0.873812 0.873718 0.873524 0.873213 0.872770 0.872184 0.871228 0.870116 0.868849 0.867428 0.865858 0.864145 0.862296 0.860322 0.858232 0.856040 0.853756 0.851396 0.848974 0.846505 0.844004 0.841385 0.838769 0.836175 0.833622 0.831126 0.828706 0.826375 0.824146 0.822032 0.820041 0.818180 0.816454 0.814866 0.813416 0.812101 0.810881 0.809785 0.808807 0.807936 0.807161 0.806467 0.805838 0.805259 0.804712 0.804178 0.803637 0.803070 0.802458 0.801783 0.801025 0.800087 0.799037 0.797866 0.796563 0.795122 0.793536 0.791803 0.789921 0.787893 0.785721 0.783413 0.780975 0.778421 0.775762 0.773015 0.769895 0.766735 0.763566 0.760422 0.757335 0.754338 0.751464 0.748742 0.746203 0.743870 0.741768 0.739915 0.738328 0.737018 0.735991 0.735507 0.735298 0.735348 0.735637 0.736141 0.736833 0.737684 0.738662 0.739733 0.740864 0.742021 0.743169 0.744277 0.745312 0.746246 0.746598 0.746818 0.746903 0.746854 0.746675 0.746371 0.745950 0.745424 0.744803 0.744100 0.743331 0.742509 0.741649 0.740765 0.739873 0.739146 0.738429 0.737726 0.737040 0.736375 0.735731 0.735108 0.734504 0.733917 0.733343 0.732778 0.732217 0.731655 0.731086 0.730504 0.729642 0.728765 0.727879 0.726987 0.726093 0.725203 0.724319 0.723444 0.722581 0.721732 0.720898 0.720079 0.719275 0.718485 0.717707 0.717024 0.716344 0.715659 0.714961 0.714242 0.713495 0.712711 0.711883 0.711005 0.710071 0.709076 0.708018 0.706894 0.705703 0.704449 0.702800 0.701108 0.699393 0.697673 0.695972 0.694311 0.692711 0.691193 0.689778 0.688485 0.687331 0.686332 0.685499 0.684843 0.684371 0.684252 0.684315 0.684553 0.684954 0.685503 0.686183 0.686977 0.687862 0.688816 0.689817 0.690840 0.691861 0.692856 0.693800 0.694672 0.695232 0.695687 0.696030 0.696254 0.696353 0.696325 0.696169 0.695887 0.695480 0.694955 0.694319 0.693579 0.692747 0.691834 0.690852 0.689674 0.688460 0.687231 0.686008 0.684811 0.683659 0.682571 0.681565 0.680655 0.679856 0.679179 0.678631 0.678221 0.677951 0.677821 0.677936 0.678180 0.678542 0.679007 0.679557 0.680176 0.680841 0.681532 0.682227 0.682902 0.683536 0.684105 0.684590 0.684969 0.685224 0.685107 0.684845 0.684437 0.683880 0.683179 0.682335 0.681357 0.680252 0.679031 0.677705 0.676288 0.674795 0.673241 0.671643 0.670018 0.668270 0.666533 0.664829 0.663176 0.661596 0.660105 0.658720 0.657454 0.656320 0.655326 0.654479 0.653780 0.653232 0.652830 0.652569 0.652603 0.652751 0.652992 0.653302 0.653657 0.654030 0.654393 0.654720 0.654983 0.655155 0.655210 0.655126 0.654880 0.654454 0.653832 0.652571 0.651109 0.649458 0.647631 0.645647 0.643524 0.641284 0.638949 0.636544 0.634093 0.631620 0.629150 0.626704 0.624305 0.621973 0.620022 0.618158 0.616384 0.614699 0.613099 0.611580 0.610135 0.608757 0.607436 0.606162 0.604926 0.603718 0.602526 0.601341 0.600156 0.598521 0.596888 0.595268 0.593675 0.592121 0.590619 0.589182 0.587823 0.586552 0.585379 0.584314 0.583362 0.582528 0.581814 0.581219 0.581060 0.581000 0.581017 0.581090 0.581195 0.581307 0.581400 0.581448 0.581426 0.581310 0.581077 0.580707 0.580180 0.579483 0.578601 0.577050 0.575320 0.573429 0.571396 0.569246 0.567003 0.564693 0.562344 0.559985 0.557643 0.555347 0.553122 0.550993 0.548982 0.547109 0.545673 0.544394 0.543271 0.542299 0.541472 0.540779 0.540207 0.539742 0.539365 0.539058 0.538802 0.538575 0.538357 0.538126 ) qmult=(0.420973 0.421774 0.422558 0.423306 0.424002 0.424629 0.425172 0.425616 0.425948 0.426158 0.426236 0.426177 0.425976 0.425630 0.425141 0.424512 0.423498 0.422367 0.421139 0.419835 0.418479 0.417096 0.415709 0.414343 0.413023 0.411771 0.410609 0.409557 0.408633 0.407852 0.407227 0.407032 0.406998 0.407118 0.407381 0.407774 0.408283 0.408890 0.409577 0.410323 0.411107 0.411910 0.412710 0.413486 0.414219 0.414892 0.415060 0.415154 0.415176 0.415131 0.415028 0.414874 0.414677 0.414446 0.414191 0.413921 0.413644 0.413368 0.413099 0.412842 0.412602 0.412784 0.412969 0.413139 0.413279 0.413367 0.413387 0.413320 0.413147 0.412854 0.412426 0.411850 0.411118 0.410224 0.409164 0.407940 0.405934 0.403800 0.401575 0.399297 0.397009 0.394750 0.392564 0.390491 0.388572 0.386844 0.385342 0.384096 0.383133 0.382474 0.382135 0.382742 0.383657 0.384853 0.386300 0.387959 0.389792 0.391753 0.393799 0.395881 0.397954 0.399970 0.401885 0.403656 0.405245 0.406617 0.407039 0.407216 0.407157 0.406873 0.406383 0.405706 0.404866 0.403891 0.402808 0.401648 0.400440 0.399216 0.398004 0.396832 0.395725 0.395199 0.394761 0.394409 0.394138 0.393939 0.393803 0.393716 0.393664 0.393631 0.393601 0.393557 0.393482 0.393360 0.393176 0.392915 0.392133 0.391270 0.390334 0.389337 0.388291 0.387208 0.386103 0.384992 0.383888 0.382809 0.381768 0.380781 0.379859 0.379016 0.378261 0.377811 0.377456 0.377194 0.377019 0.376924 0.376901 0.376941 0.377032 0.377162 0.377318 0.377489 0.377661 0.377820 0.377955 0.378053 0.377896 0.377690 0.377433 0.377126 0.376770 0.376366 0.375919 0.375431 0.374906 0.374349 0.373765 0.373160 0.372538 0.371904 0.371265 0.370673 0.370082 0.369496 0.368916 0.368345 0.367783 0.367233 0.366694 0.366167 0.365652 0.365149 0.364657 0.364176 0.363705 0.363243 0.362689 0.362147 0.361621 0.361112 0.360625 0.360162 0.359726 0.359318 0.358942 0.358599 0.358290 0.358017 0.357778 0.357575 0.357407 0.357277 0.357180 0.357114 0.357077 0.357065 0.357076 0.357108 0.357156 0.357217 0.357288 0.357366 0.357448 0.357529 0.357608 0.357682 0.357636 0.357584 0.357531 0.357478 0.357430 0.357388 0.357357 0.357339 0.357336 0.357351 0.357386 0.357443 0.357520 0.357620 0.357742 0.357923 0.358122 0.358334 0.358554 0.358777 0.358998 0.359211 0.359410 0.359589 0.359742 0.359864 0.359948 0.359989 0.359984 0.359927 0.359684 0.359389 0.359046 0.358659 0.358232 0.357771 0.357280 0.356766 0.356234 0.355691 0.355140 0.354589 0.354041 0.353502 0.352976 0.352491 0.352024 0.351578 0.351153 0.350749 0.350365 0.350003 0.349659 0.349332 0.349020 0.348720 0.348431 0.348148 0.347870 0.347593 0.347247 0.346899 0.346550 0.346202 0.345853 0.345506 0.345161 0.344820 0.344484 0.344155 0.343835 0.343525 0.343227 0.342945 0.342679 0.342354 0.342054 0.341783 0.341547 0.341351 0.341198 0.341093 0.341039 0.341037 0.341092 0.341202 0.341368 0.341589 0.341863 0.342188 0.342589 0.343030 0.343506 0.344010 0.344534 0.345069 0.345607 0.346139 0.346656 0.347150 0.347611 0.348032 0.348406 0.348725 0.348983 0.349075 0.349101 0.349062 0.348961 0.348802 0.348587 0.348321 0.348011 0.347663 0.347283 0.346878 0.346457 0.346028 0.345599 0.345177 0.344713 0.344275 0.343872 0.343515 0.343211 0.342969 0.342796 0.342696 0.342676 0.342738 0.342885 0.343117 0.343433 0.343831 0.344307 0.344889 0.345537 0.346242 0.346996 0.347788 0.348606 0.349439 0.350276 0.351104 0.351910 0.352685 0.353417 0.354096 0.354712 0.355258 0.355594 0.355852 0.356034 0.356143 0.356184 0.356160 0.356078 0.355947 0.355774 0.355567 0.355338 0.355096 0.354851 0.354614 0.354396 0.354183 0.354009 0.353886 0.353824 0.353831 0.353917 0.354089 0.354353 0.354714 0.355176 0.355741 0.356412 0.357187 0.358065 0.359043 0.360129 0.361306 0.362566 0.363902 0.365304 0.366763 0.368269 0.369812 0.371381 0.372964 0.374553 0.376136 0.377704 0.379248 0.380759 0.382064 0.383329 0.384555 0.385746 0.386904 0.388032 0.389134 0.390216 0.391281 0.392334 0.393380 0.394424 0.395469 0.396519 0.397577 0.398713 0.399858 0.401011 0.402169 0.403328 0.404485 0.405637 0.406779 0.407906 0.409013 0.410096 0.411150 0.412171 0.413154 0.414096 0.414866 0.415595 0.416286 0.416943 0.417571 0.418174 0.418758 0.419329 0.419892 0.420453 0.421018 0.421593 0.422184 0.422796 0.423434 0.424071 0.424745 0.425460 0.426221 0.427032 0.427896 0.428815 0.429791 0.430823 0.431912 0.433056 0.434252 0.435497 0.436787 0.438118 0.439455 0.440821 0.442211 0.443619 0.445037 0.446459 0.447877 0.449284 0.450672 0.452034 0.453362 0.454649 0.455888 0.457073 0.458199 0.459191 0.460117 0.460976 0.461767 0.462492 0.463152 0.463749 0.464286 0.464765 0.465191 0.465569 0.465903 0.466199 0.466461 0.466697 0.466795 0.466883 0.466970 0.467067 0.467184 0.467328 0.467510 0.467736 0.468011 0.468342 0.468730 0.469179 0.469688 0.470257 0.470882 0.471666 0.472493 0.473351 0.474230 0.475116 0.475996 0.476857 0.477685 0.478468 0.479193 0.479848 0.480425 0.480914 0.481308 0.481603 0.481489 0.481284 0.481002 0.480657 0.480266 0.479846 0.479417 0.478996 0.478603 0.478255 0.477972 0.477768 0.477660 0.477660 0.477782 0.478266 0.478878 0.479615 0.480469 0.481434 0.482499 0.483653 0.484885 0.486181 0.487529 0.488914 0.490324 0.491746 0.493167 0.494577 0.495584 0.496578 0.497565 0.498554 0.499554 0.500577 0.501633 0.502730 0.503880 0.505089 0.506367 0.507718 0.509148 0.510658 0.512249 0.514194 0.516203 0.518259 0.520343 0.522437 0.524517 0.526564 0.528554 0.530466 0.532280 0.533974 0.535532 0.536936 0.538172 0.539229 0.539722 0.540036 0.540183 0.540179 0.540039 0.539784 0.539434 0.539011 0.538537 0.538035 0.537529 0.537041 0.536592 0.536203 0.535891 0.535822 0.535855 0.535997 0.536250 0.536617 0.537095 0.537681 0.538370 0.539153 0.540022 0.540963 0.541965 0.543013 0.544093 0.545188 0.546155 0.547112 0.548048 0.548952 0.549813 0.550624 0.551374 0.552057 0.552664 0.553190 0.553630 0.553982 0.554241 0.554409 0.554485 0.554328 0.554089 0.553780 0.553411 0.552995 0.552544 0.552072 0.551591 0.551115 0.550656 0.550227 0.549839 0.549502 0.549227 0.549021 0.548984 0.549025 0.549145 0.549343 0.549616 0.549961 0.550374 0.550850 0.551383 0.551967 0.552595 0.553260 0.553956 0.554676 0.555415 0.555915 0.556433 0.556975 0.557547 0.558154 0.558803 0.559501 0.560253 0.561064 0.561939 0.562883 0.563896 0.564982 0.566140 0.567370 0.568752 0.570195 0.571691 0.573230 0.574799 0.576387 0.577982 0.579569 0.581135 0.582665 0.584146 0.585564 0.586905 0.588157 0.589309 0.590196 0.590971 0.591630 0.592175 0.592607 0.592928 0.593143 0.593256 0.593274 0.593204 0.593055 0.592835 0.592554 0.592223 0.591852 0.591327 0.590789 0.590254 0.589737 0.589254 0.588818 0.588443 0.588140 0.587920 0.587792 0.587760 0.587832 0.588008 0.588291 0.588677 0.589311 0.590035 0.590837 0.591702 0.592616 0.593562 0.594524 0.595486 0.596432 0.597348 0.598218 0.599032 0.599777 0.600447 0.601034 0.601088 0.601073 0.601006 0.600908 0.600801 0.600709 0.600653 0.600658 0.600745 0.600935 0.601249 0.601703 0.602312 0.603088 0.604037 0.605539 0.607206 0.609022 0.610966 0.613015 0.615144 0.617326 0.619532 0.621735 0.623904 0.626013 0.628033 0.629939 0.631709 0.633323 0.634227 0.634965 0.635546 0.635984 0.636295 0.636497 0.636609 0.636654 0.636654 0.636630 0.636604 0.636599 0.636635 0.636729 0.636899 0.637508 0.638205 0.638984 0.639840 0.640762 0.641741 0.642764 0.643818 0.644888 0.645961 0.647022 0.648058 0.649055 0.650003 0.650891 0.651211 0.651476 0.651703 0.651907 0.652107 0.652321 0.652569 0.652868 0.653236 0.653691 0.654248 0.654920 0.655718 0.656651 0.657723 0.659299 0.661002 0.662815 0.664719 0.666690 0.668704 0.670737 0.672763 0.674756 0.676690 0.678541 0.680285 0.681903 0.683376 0.684689 0.685265 0.685682 0.685955 0.686104 0.686151 0.686119 0.686033 0.685917 0.685798 0.685700 0.685648 0.685662 0.685764 0.685970 0.686295 0.687176 0.688179 0.689290 0.690494 0.691772 0.693104 0.694469 0.695843 0.697202 0.698523 0.699782 0.700957 0.702029 0.702977 0.703788 0.703855 0.703786 0.703598 0.703310 0.702944 0.702524 0.702075 0.701622 0.701191 0.700807 0.700492 0.700271 0.700161 0.700182 0.700346 0.701073 0.701946 0.702953 0.704079 0.705307 0.706617 0.707986 0.709391 0.710807 0.712212 0.713579 0.714886 0.716110 0.717232 0.718234 0.718541 0.718722 0.718789 0.718758 0.718644 0.718466 0.718244 0.717997 0.717747 0.717514 0.717315 0.717170 0.717093 0.717100 0.717200 0.717783 0.718459 0.719217 0.720042 0.720917 0.721824 0.722743 0.723654 0.724536 0.725368 0.726130 0.726803 0.727370 0.727817 0.728129 0.727760 0.727261 0.726650 0.725947 0.725172 0.724349 0.723501 0.722653 0.721830 0.721054 0.720350 0.719736 0.719233 0.718857 0.718621 0.718882 0.719287 0.719825 0.720484 0.721247 0.722096 0.723013 0.723974 0.724957 0.725940 0.726899 0.727812 0.728656 0.729413 0.730062 0.730109 0.730038 0.729857 0.729576 0.729207 0.728763 0.728258 0.727707 0.727126 0.726530 0.725934 0.725353 0.724798 0.724283 0.723817 0.723648 0.723531 0.723462 0.723431 0.723431 0.723449 0.723473 0.723490 0.723486 0.723447 0.723357 0.723204 0.722974 0.722654 0.722234 0.721397 0.720455 0.719416 0.718287 0.717078 0.715801 0.714466 0.713089 0.711682 0.710261 0.708839 0.707432 0.706053 0.704718 0.703439 0.702236 0.701112 0.700077 0.699139 0.698306 0.697582 0.696971 0.696476 0.696096 0.695830 0.695676 0.695627 0.695678 0.695822 0.696049 0.696281 0.696579 0.696933 0.697333 0.697770 0.698230 0.698705 0.699181 0.699648 0.700094 0.700508 0.700881 0.701202 0.701462 0.701655 0.701656 0.701582 0.701432 0.701208 0.700912 0.700548 0.700119 0.699631 0.699090 0.698503 0.697876 0.697217 0.696534 0.695835 0.695127 0.694296 0.693476 0.692679 0.691917 0.691199 0.690534 0.689930 0.689394 0.688928 0.688536 0.688218 0.687973 0.687796 0.687683 0.687625 0.687663 0.687733 0.687822 0.687913 0.687987 0.688028 0.688015 0.687930 0.687754 0.687467 0.687053 0.686494 0.685775 0.684882 0.683804 0.682321 0.680644 0.678778 0.676729 0.674504 0.672115 0.669573 0.666894 0.664092 0.661185 0.658191 0.655130 0.652020 0.648883 0.645738 0.642576 0.639447 0.636371 0.633369 0.630458 0.627655 0.624976 0.622434 0.620041 0.617807 0.615738 0.613840 0.612116 0.610566 0.609190 0.607942 0.606861 0.605937 0.605165 0.604532 0.604028 0.603638 0.603349 0.603144 0.603006 0.602919 0.602863 0.602823 0.602779 0.602714 0.602493 0.602224 0.601896 0.601499 0.601026 0.600470 0.599824 0.599084 0.598247 0.597311 0.596276 0.595141 0.593909 0.592583 0.591168 0.589567 0.587892 0.586155 0.584366 0.582540 0.580688 0.578823 0.576957 0.575104 0.573275 0.571480 0.569731 0.568036 0.566404 0.564842 0.563388 0.562015 0.560723 0.559515 0.558389 0.557344 0.556379 0.555490 0.554674 0.553926 0.553240 0.552613 0.552039 0.551512 0.551028 0.550353 0.549721 0.549135 0.548602 0.548125 0.547710 0.547360 0.547080 0.546873 0.546741 0.546686 0.546707 0.546803 0.546974 0.547214 0.547634 0.548109 0.548628 0.549176 0.549742 0.550310 0.550866 0.551395 0.551883 0.552315 0.552678 0.552959 0.553146 0.553229 0.553199 0.552739 0.552166 0.551487 0.550713 0.549853 0.548920 0.547925 0.546881 0.545800 0.544693 0.543572 0.542447 0.541328 0.540221 0.539133 0.538336 0.537556 0.536784 0.536010 0.535222 0.534410 0.533561 0.532665 0.531709 0.530684 0.529582 0.528394 0.527117 0.525748 0.524286 0.522239 0.520126 0.517974 0.515810 0.513664 0.511567 0.509549 0.507640 0.505869 0.504264 0.502849 0.501646 0.500673 0.499946 0.499476 0.499645 0.500064 0.500715 0.501578 0.502626 0.503832 0.505166 0.506593 0.508081 0.509594 0.511097 0.512555 0.513935 0.515206 0.516338 0.516909 0.517308 0.517532 0.517578 0.517449 0.517151 0.516693 0.516084 0.515340 0.514474 0.513505 0.512450 0.511329 0.510163 0.508970 0.507847 0.506734 0.505648 0.504602 0.503612 0.502688 0.501843 0.501084 0.500419 0.499854 0.499391 0.499032 0.498777 0.498621 0.498562 0.498558 0.498639 0.498794 0.499016 0.499292 0.499612 0.499962 0.500330 0.500701 0.501062 0.501398 0.501697 0.501945 0.502130 0.502242 0.502139 0.501948 0.501667 0.501296 0.500835 0.500286 0.499651 0.498935 0.498144 0.497283 0.496360 0.495384 0.494362 0.493304 0.492220 0.491059 0.489893 0.488735 0.487596 0.486488 0.485421 0.484405 0.483449 0.482561 0.481746 0.481009 0.480354 0.479783 0.479295 0.478890 0.478575 0.478335 0.478163 0.478052 0.477992 0.477974 0.477986 0.478017 0.478055 0.478087 0.478101 0.478085 0.478026 0.477914 0.477737 0.477362 0.476910 0.476378 0.475766 0.475074 0.474303 0.473456 0.472535 0.471548 0.470498 0.469392 0.468239 0.467046 0.465822 0.464578 0.463284 0.461991 0.460709 0.459451 0.458228 0.457051 0.455932 0.454879 0.453903 0.453011 0.452212 0.451511 0.450913 0.450423 0.450043 0.449720 0.449511 0.449415 0.449433 0.449561 0.449797 0.450135 0.450568 0.451089 0.451689 0.452357 0.453082 0.453852 0.454654 0.455474 0.456252 0.457021 0.457770 0.458486 0.459156 0.459767 0.460308 0.460767 0.461134 0.461399 0.461551 0.461585 0.461491 0.461266 0.460905 0.460331 0.459619 0.458773 0.457798 0.456698 0.455482 0.454157 0.452733 0.451220 0.449630 0.447973 0.446264 0.444515 0.442739 0.440950 0.439108 0.437282 0.435487 0.433740 0.432054 0.430443 0.428920 0.427496 0.426181 0.424985 0.423916 0.422978 0.422178 0.421516 )
