New Generator.PV1 bus1=260889546 phases=3 kv=24.9 kW=0  pf=1.00 Daily=LS_Solar enable=true
New Generator.PV2 bus1=260889546 phases=3 kv=24.9 kW=0 pf=1.00 Daily=LS_Solar enable=true