New Line.258851131 Phases= 3 Bus1=258851123.1.2.3 Bus2=258851133.1.2.3 Length=33.85  units=m  Spacing=8'-ARM-NON-CENTER-POST-3PH wires=['2-ACSR-B-6X1' '2-ACSR-B-6X1' '2-ACSR-B-6X1' '1/0-ACSR-B-6X1']
New Line.472683988 Bus1=472683990.1.2.3 Bus2=472683966.1.2.3 LineCode=1/0-AL-TRXLPELCJ-25KV Phases= 3 Length=1.54   units=m enable=no
New Line.264494221 Phases= 3 Bus1=264494218.1.2.3 Bus2=258840388.1.2.3 Length=29.52  units=m  Spacing=8'-ARM-NON-CENTER-POST-3PH wires=['336-ACSR-WP-18X1' '336-ACSR-WP-18X1' '336-ACSR-WP-18X1' '1/0-ACSR-B-6X1']
New Line.263511662 Phases= 3 Bus1=258839921.1.2.3 Bus2=263511664.1.2.3 Length=1.52   units=m  Spacing=8'-ARM-NON-CENTER-POST-3PH wires=['2-ACSR-B-6X1' '2-ACSR-B-6X1' '2-ACSR-B-6X1' '2-ACSR-B-6X1']
New Line.460932382 Bus1=460932379.1.2.3 Bus2=261124328.1.2.3 LineCode=1/0-AL-TRXLPELCJ-25KV Phases= 3 Length=229.20 units=m enable=yes
New Line.258840228 Phases= 3 Bus1=258840225.1.2.3 Bus2=258840230.1.2.3 Length=33.80  units=m  Spacing=8'-ARM-NON-CENTER-POST-3PH wires=['336-ACSR-B-18X1' '336-ACSR-B-18X1' '336-ACSR-B-18X1' '2-CU-B-7']
New Line.258839879 Phases= 3 Bus1=258839876.1.2.3 Bus2=258839881.1.2.3 Length=19.66  units=m  Spacing=8'-ARM-NON-CENTER-POST-3PH wires=['336-ACSR-B-18X1' '336-ACSR-B-18X1' '336-ACSR-B-18X1' '1/0-ACSR-B-6X1']
New Line.261031162 Bus1=261031159.1     Bus2=260972090.1     LineCode=1/0-AL-TRXLPELCJ-15KV Phases= 1 Length=152.10 units=m enable=yes
New Line.466987568 Bus1=466987565.1.2.3 Bus2=260745407.1.2.3 LineCode=1/0-AL-HMWPECN-15KV Phases= 3 Length=12.70  units=m enable=yes
New Line.261031157 Bus1=261031154.1     Bus2=261031159.1     LineCode=1/0-AL-TRXLPELCJ-15KV Phases= 1 Length=206.70 units=m enable=yes
New Line.258850968 Phases= 3 Bus1=258850523.1.2.3 Bus2=258850970.1.2.3 Length=49.66  units=m  Spacing=8'-ARM-NON-CENTER-POST-3PH wires=['336-ACSR-WP-18X1' '336-ACSR-WP-18X1' '336-ACSR-WP-18X1' '1/0-ACSR-WP-6X1']
New Line.258851425 Phases= 1 Bus1=258851417.1     Bus2=258851427.1     Length=93.27  units=m  Spacing=VERTICAL-1-PH-60-1PH wires=['1/0-ACSR-WP-6X1' '2-ACSR-B-6X1']
New Line.263973888 Phases= 3 Bus1=258850970.1.2.3 Bus2=263973890.1.2.3 Length=1.52   units=m  Spacing=8'-ARM-NON-CENTER-POST-3PH wires=['336-ACSR-WP-18X1' '336-ACSR-WP-18X1' '336-ACSR-WP-18X1' '1/0-ACSR-B-6X1']
New Line.258850616 Phases= 3 Bus1=258850613.1.2.3 Bus2=258850618.1.2.3 Length=34.22  units=m  Spacing=8'-ARM-NON-CENTER-POST-3PH wires=['1/0-ACSR-B-6X1' '1/0-ACSR-B-6X1' '1/0-ACSR-B-6X1' '1/0-ACSR-B-6X1']
New Line.258840509 Phases= 3 Bus1=258840506.1.2.3 Bus2=258840511.1.2.3 Length=135.70 units=m  Spacing=8'-ARM-STANDARD-3PH wires=['2-ACSR-B-6X1' '2-ACSR-B-6X1' '2-ACSR-B-6X1' '1/0-ACSR-B-6X1']
New Line.258840438 Phases= 3 Bus1=258840439.1.2.3 Bus2=258840440.1.2.3 Length=38.12  units=m  Spacing=8'-ARM-NON-CENTER-POST-3PH wires=['336-ACSR-WP-18X1' '336-ACSR-WP-18X1' '336-ACSR-WP-18X1' '1/0-ACSR-B-6X1']
New Line.263514821 Bus1=258850618.1.2.3 Bus2=263514823.1.2.3 LineCode=1/0-AL-TRXLPELCJ-15KV Phases= 3 Length=1.53   units=m enable=yes
New Line.263645696 Phases= 3 Bus1=263645693.1.2.3 Bus2=258840472.1.2.3 Length=8.86   units=m  Spacing=8'-ARM-STANDARD-3PH wires=['2-ACSR-B-6X1' '2-ACSR-B-6X1' '2-ACSR-B-6X1' '1/0-ACSR-B-6X1']
New Line.263511793 Phases= 3 Bus1=263511790.1.2.3 Bus2=258851029.1.2.3 Length=58.45  units=m  Spacing=8'-ARM-NON-CENTER-POST-3PH wires=['2-ACSR-B-6X1' '2-ACSR-B-6X1' '2-ACSR-B-6X1' '2-ACSR-B-6X1']
New Line.471228024 Phases= 1 Bus1=258840526.3     Bus2=471228026.3     Length=1.53   units=m  Spacing=VERTICAL-1-PH-60-1PH wires=['2-ACSR-B-6X1' '1/0-ACSR-B-6X1']
New Line.258840428 Phases= 3 Bus1=258840425.1.2.3 Bus2=258840430.1.2.3 Length=53.03  units=m  Spacing=8'-ARM-NON-CENTER-POST-3PH wires=['336-ACSR-WP-18X1' '336-ACSR-WP-18X1' '336-ACSR-WP-18X1' '1/0-ACSR-B-6X1']
New Line.258840077 Phases= 2 Bus1=258840072.1.2   Bus2=258840079.1.2   Length=37.91  units=m  Spacing=8'-ARM-STANDARD-2PH wires=['4-CU-B-7' '4-CU-B-7' '1/0-ACSR-B-6X1']
New Line.263515145 Phases= 3 Bus1=258851372.1.2.3 Bus2=263515147.1.2.3 Length=1.53   units=m  Spacing=8'-ARM-STANDARD-3PH wires=['1/0-ACSR-B-6X1' '1/0-ACSR-B-6X1' '1/0-ACSR-B-6X1' '1/0-ACSR-B-6X1']
New Line.259237098 Phases= 3 Bus1=259004984.1.2.3 Bus2=259004980.1.2.3 Length=92.15  units=m  Spacing=HORIZ-LINE-POST-3PH wires=['336-ACSR-WP-18X1' '336-ACSR-WP-18X1' '336-ACSR-WP-18X1' '1/0-ACSR-B-6X1']
New Line.264292393 Bus1=260972096.2     Bus2=264292391.2     LineCode=1/0-AL-TRXLPELCJ-15KV Phases= 1 Length=206.00 units=m enable=yes
New Line.258850528 Phases= 3 Bus1=258850518.1.2.3 Bus2=258850530.1.2.3 Length=91.29  units=m  Spacing=DBL-CKT-1-ARM-ONE-SIDE-3PH wires=['336-ACSR-B-18X1' '336-ACSR-B-18X1' '336-AAC-B-19' '1/0-ACSR-B-6X1']
New Line.258851126 Phases= 3 Bus1=258851123.1.2.3 Bus2=258851128.1.2.3 Length=64.17  units=m  Spacing=8'-ARM-NON-CENTER-POST-3PH wires=['2-ACSR-B-6X1' '2-ACSR-B-6X1' '2-ACSR-B-6X1' '2-ACSR-B-6X1']
New Line.263565080 Bus1=263565077.3     Bus2=260784245.3     LineCode=1/0-AL-HMWPECN-15KV Phases= 1 Length=296.00 units=m enable=yes
New Line.258851183 Phases= 3 Bus1=258851180.1.2.3 Bus2=258851185.1.2.3 Length=22.16  units=m  Spacing=8'-ARM-NON-CENTER-POST-3PH wires=['2-ACSR-B-6X1' '2-ACSR-B-6X1' '2-ACSR-B-6X1' '1/0-ACSR-B-6X1']
New Line.258840020 Phases= 3 Bus1=258840017.1.2.3 Bus2=258840022.1.2.3 Length=60.78  units=m  Spacing=8'-ARM-NON-CENTER-POST-3PH wires=['336-ACSR-B-18X1' '336-ACSR-B-18X1' '336-ACSR-B-18X1' '2-CU-B-7']
New Line.258851200 Phases= 3 Bus1=258851197.1.2.3 Bus2=258851202.1.2.3 Length=3.10   units=m  Spacing=8'-ARM-NON-CENTER-POST-3PH wires=['2-ACSR-B-6X1' '2-ACSR-B-6X1' '2-ACSR-B-6X1' '1/0-ACSR-B-6X1']
New Line.263515118 Bus1=258851118.1     Bus2=263515120.1     LineCode=1/0-AL-HMWPECN-15KV Phases= 1 Length=1.52   units=m enable=yes
New Line.263815481 Bus1=259312123.1     Bus2=263815483.1     LineCode=1/0-AL-TRXLPELCJ-15KV Phases= 1 Length=1.53   units=m enable=yes
New Line.258850708 Phases= 3 Bus1=258850705.1.2.3 Bus2=258850710.1.2.3 Length=87.26  units=m  Spacing=HORIZ-LINE-POST-3PH wires=['336-ACSR-B-18X1' '336-ACSR-B-18X1' '336-ACSR-B-18X1' '1/0-ACSR-B-6X1']
New Line.263511757 Phases= 1 Bus1=263511754.1     Bus2=258840383.1     Length=112.00 units=m  Spacing=VERTICAL-1-PH-60-1PH wires=['2-ACSR-B-6X1' '1/0-ACSR-B-6X1']
New Line.260784313 Bus1=260784310.3     Bus2=260784315.3     LineCode=1/0-AL-HMWPECN-15KV Phases= 1 Length=35.54  units=m enable=yes
New Line.259172454 Phases= 2 Bus1=258851372.1.2   Bus2=258851376.1.2   Length=49.55  units=m  Spacing=8'-ARM-STANDARD-2PH wires=['6-CU-B-S' '6-CU-B-S' '2-CU-B-7']
New Line.258840120 Phases= 2 Bus1=258840079.1.2   Bus2=258840122.1.2   Length=28.91  units=m  Spacing=8'-ARM-STANDARD-2PH wires=['4-CU-B-7' '4-CU-B-7' '1/0-ACSR-B-6X1']
New Line.261002704 Bus1=261002705.2     Bus2=261002706.2     LineCode=1/0-AL-TRXLPELCJ-15KV Phases= 1 Length=203.60 units=m enable=yes
New Line.263730586 Bus1=259237110.2     Bus2=263730588.2     LineCode=1/0-AL-TRXLPELCJ-15KV Phases= 1 Length=1.53   units=m enable=yes
New Line.258840327 Phases= 3 Bus1=258840324.1.2.3 Bus2=258840329.1.2.3 Length=34.04  units=m  Spacing=8'-ARM-NON-CENTER-POST-3PH wires=['1/0-ACSR-WP-6X1' '1/0-ACSR-WP-6X1' '1/0-ACSR-WP-6X1' '1/0-ACSR-B-6X1']
New Line.258839993 Phases= 3 Bus1=258839990.1.2.3 Bus2=258839995.1.2.3 Length=65.98  units=m  Spacing=8'-ARM-NON-CENTER-POST-3PH wires=['336-ACSR-B-18X1' '336-ACSR-B-18X1' '336-ACSR-B-18X1' '1/0-ACSR-B-6X1']
New Line.264494230 Phases= 3 Bus1=264494227.1.2.3 Bus2=258840297.1.2.3 Length=38.23  units=m  Spacing=8'-ARM-NON-CENTER-POST-3PH wires=['336-ACSR-B-18X1' '336-ACSR-B-18X1' '336-ACSR-B-18X1' '2-CU-B-7']
New Line.263515150 Phases= 3 Bus1=263515147.1.2.3 Bus2=259172465.1.2.3 Length=52.90  units=m  Spacing=8'-ARM-STANDARD-3PH wires=['1/0-ACSR-B-6X1' '1/0-ACSR-B-6X1' '1/0-ACSR-B-6X1' '1/0-ACSR-B-6X1']
New Line.263514808 Bus1=263514805.1.2.3 Bus2=260745322.1.2.3 LineCode=1/0-AL-HMWPECN-15KV Phases= 3 Length=37.80  units=m enable=yes
New Line.261002764 Bus1=261002761.1     Bus2=261002700.1     LineCode=1/0-AL-TRXLPELCJ-15KV Phases= 1 Length=2.83   units=m enable=yes
New Line.258840125 Phases= 2 Bus1=258840122.1.2   Bus2=258840127.1.2   Length=92.03  units=m  Spacing=8'-ARM-STANDARD-2PH wires=['4-CU-B-7' '4-CU-B-7' '1/0-ACSR-B-6X1']
New Line.472684220 Bus1=460932413.1.2.3 Bus2=261124309.1.2.3 LineCode=1/0-AL-TRXLPELCJ-25KV Phases= 3 Length=164.80 units=m enable=yes
New Line.258839862 Phases= 3 Bus1=258839859.1.2.3 Bus2=258839864.1.2.3 Length=104.90 units=m  Spacing=8'-ARM-NON-CENTER-POST-3PH wires=['336-ACSR-B-18X1' '336-ACSR-B-18X1' '336-ACSR-B-18X1' '1/0-ACSR-B-6X1']
New Line.258839934 Phases= 3 Bus1=258839931.1.2.3 Bus2=258839936.1.2.3 Length=66.10  units=m  Spacing=8'-ARM-NON-CENTER-POST-3PH wires=['336-ACSR-WP-18X1' '336-ACSR-WP-18X1' '336-ACSR-WP-18X1' '1/0-ACSR-B-6X1']
New Line.258850768 Phases= 3 Bus1=258850765.1.2.3 Bus2=258850770.1.2.3 Length=26.73  units=m  Spacing=8'-ARM-NON-CENTER-POST-3PH wires=['2-ACSR-B-6X1' '2-ACSR-B-6X1' '2-ACSR-B-6X1' '2-ACSR-B-6X1']
New Line.260972094 Bus1=260972095.2     Bus2=260972096.2     LineCode=1/0-AL-TRXLPELCJ-15KV Phases= 1 Length=91.07  units=m enable=yes
New Line.263511680 Phases= 3 Bus1=258840012.1.2.3 Bus2=263511682.1.2.3 Length=1.53   units=m  Spacing=8'-ARM-NON-CENTER-POST-3PH wires=['2-ACSR-B-6X1' '2-ACSR-B-6X1' '2-ACSR-B-6X1' '1/0-ACSR-B-6X1']
New Line.259004978 Phases= 3 Bus1=259004980.1.2.3 Bus2=259004973.1.2.3 Length=136.00 units=m  Spacing=HORIZ-LINE-POST-3PH wires=['336-ACSR-WP-18X1' '336-ACSR-WP-18X1' '336-ACSR-WP-18X1' '1/0-ACSR-B-6X1']
New Line.258851380 Phases= 2 Bus1=258851377.1.2   Bus2=258851382.1.2   Length=55.00  units=m  Spacing=8'-ARM-STANDARD-2PH wires=['6-CU-B-S' '6-CU-B-S' '2-CU-B-7']
New Line.260874524 Bus1=258851069.3     Bus2=260874526.3     LineCode=1/0-AL-TRXLPELCJ-15KV Phases= 1 Length=152.90 units=m enable=yes
New Line.258851002 Phases= 3 Bus1=258850999.1.2.3 Bus2=258851004.1.2.3 Length=29.30  units=m  Spacing=8'-ARM-NON-CENTER-POST-3PH wires=['2-ACSR-B-6X1' '2-ACSR-B-6X1' '2-ACSR-B-6X1' '2-ACSR-B-6X1']
New Line.259005000 Phases= 3 Bus1=259005002.1.2.3 Bus2=259004995.1.2.3 Length=52.08  units=m  Spacing=HORIZ-LINE-POST-3PH wires=['336-ACSR-WP-18X1' '336-ACSR-WP-18X1' '336-ACSR-WP-18X1' '1/0-ACSR-B-6X1']
New Line.258840157 Phases= 3 Bus1=258840154.1.2.3 Bus2=258840159.1.2.3 Length=38.27  units=m  Spacing=8'-ARM-NON-CENTER-POST-3PH wires=['336-ACSR-B-18X1' '336-ACSR-B-18X1' '336-ACSR-B-18X1' '2-CU-B-7']
New Line.263514880 Bus1=263514877.1.2.3 Bus2=260745397.1.2.3 LineCode=1/0-AL-HMWPECN-15KV Phases= 3 Length=47.38  units=m enable=yes
New Line.472684225 Bus1=261124309.1.2.3 Bus2=261124314.1.2.3 LineCode=1/0-AL-TRXLPELCJ-25KV Phases= 3 Length=390.90 units=m enable=yes
New Line.258851210 Phases= 3 Bus1=258851207.1.2.3 Bus2=258851212.1.2.3 Length=47.59  units=m  Spacing=8'-ARM-NON-CENTER-POST-3PH wires=['2-ACSR-B-6X1' '2-ACSR-B-6X1' '2-ACSR-B-6X1' '1/0-ACSR-B-6X1']
New Line.258851007 Phases= 3 Bus1=258850999.1.2.3 Bus2=258851009.1.2.3 Length=44.89  units=m  Spacing=8'-ARM-NON-CENTER-POST-3PH wires=['2-ACSR-B-6X1' '2-ACSR-B-6X1' '2-ACSR-B-6X1' '2-ACSR-B-6X1']
New Line.264311804 Bus1=261124323.1.2.3 Bus2=264311802.1.2.3 LineCode=1/0-AL-TRXLPELCJ-25KV Phases= 3 Length=94.22  units=m enable=yes
New Line.263515109 Bus1=258851175.1     Bus2=263515111.1     LineCode=1/0-AL-HMWPECN-15KV Phases= 1 Length=1.52   units=m enable=yes
New Line.263511658 Phases= 3 Bus1=263511655.1.2.3 Bus2=258851488.1.2.3 Length=98.32  units=m  Spacing=8'-ARM-NON-CENTER-POST-3PH wires=['2-ACSR-B-6X1' '2-ACSR-B-6X1' '2-ACSR-B-6X1' '2-ACSR-B-6X1']
New Line.258840084 Phases= 1 Bus1=258840072.2     Bus2=258840086.2     Length=25.22  units=m  Spacing=VERTICAL-1-PH-60-1PH wires=['2-ACSR-B-6X1' '1/0-ACSR-B-6X1']
New Line.264494225 Phases= 3 Bus1=258840292.1.2.3 Bus2=264494227.1.2.3 Length=1.53   units=m  Spacing=8'-ARM-NON-CENTER-POST-3PH wires=['336-ACSR-B-18X1' '336-ACSR-B-18X1' '336-ACSR-B-18X1' '2-CU-B-7']
New Line.258840152 Phases= 3 Bus1=258840005.1.2.3 Bus2=258840154.1.2.3 Length=149.60 units=m  Spacing=8'-ARM-NON-CENTER-POST-3PH wires=['336-ACSR-B-18X1' '336-ACSR-B-18X1' '336-ACSR-B-18X1' '2-CU-B-7']
New Line.264494184 Phases= 3 Bus1=264494181.1.2.3 Bus2=258839911.1.2.3 Length=16.96  units=m  Spacing=8'-ARM-NON-CENTER-POST-3PH wires=['336-ACSR-WP-18X1' '336-ACSR-WP-18X1' '336-ACSR-WP-18X1' '1/0-ACSR-B-6X1']
New Line.263514826 Bus1=263514823.1.2.3 Bus2=260745311.1.2.3 LineCode=1/0-AL-TRXLPELCJ-15KV Phases= 3 Length=173.60 units=m enable=yes
New Line.263515100 Phases= 1 Bus1=258851212.3     Bus2=263515102.3     Length=1.53   units=m  Spacing=VERTICAL-1-PH-60-1PH wires=['2-ACSR-B-6X1' '2-ACSR-B-6X1']
New Line.263514812 Bus1=258850613.1.2.3 Bus2=263514814.1.2.3 LineCode=1/0-AL-HMWPECN-15KV Phases= 3 Length=1.53   units=m enable=yes
New Line.263514988 Bus1=263514985.1.2.3 Bus2=260745392.1.2.3 LineCode=1/0-AL-HMWPECN-15KV Phases= 3 Length=12.39  units=m enable=yes
New Line.263761822 Phases= 3 Bus1=258850581.1.2.3 Bus2=263761824.1.2.3 Length=1.53   units=m  Spacing=8'-ARM-NON-CENTER-POST-3PH wires=['1/0-ACSR-B-6X1' '1/0-ACSR-B-6X1' '1/0-ACSR-B-6X1' '1/0-ACSR-B-6X1']
New Line.258840115 Phases= 1 Bus1=258840112.2     Bus2=258840117.2     Length=35.98  units=m  Spacing=VERTICAL-1-PH-60-1PH wires=['2-ACSR-B-6X1' '1/0-ACSR-B-6X1']
New Line.263514889 Phases= 3 Bus1=263514886.1.2.3 Bus2=258850934.1.2.3 Length=94.21  units=m  Spacing=8'-ARM-NON-CENTER-POST-3PH wires=['2-ACSR-B-6X1' '2-ACSR-B-6X1' '2-ACSR-B-6X1' '2-ACSR-B-6X1']
New Line.263514866 Phases= 3 Bus1=258850650.1.2.3 Bus2=263514868.1.2.3 Length=1.53   units=m  Spacing=8'-ARM-NON-CENTER-POST-3PH wires=['2-ACSR-B-6X1' '2-ACSR-B-6X1' '2-ACSR-B-6X1' '2-ACSR-B-6X1']
New Line.264021664 Bus1=258850755.1.2.3 Bus2=264021666.1.2.3 LineCode=1/0-AL-TRXLPELCJ-15KV Phases= 3 Length=1.53   units=m enable=yes
New Line.258850611 Phases= 3 Bus1=258850608.1.2.3 Bus2=258850613.1.2.3 Length=72.85  units=m  Spacing=8'-ARM-NON-CENTER-POST-3PH wires=['1/0-ACSR-B-6X1' '1/0-ACSR-B-6X1' '1/0-ACSR-B-6X1' '1/0-ACSR-B-6X1']
New Line.259004988 Phases= 3 Bus1=259004990.1.2.3 Bus2=259004985.1.2.3 Length=39.95  units=m  Spacing=HORIZ-LINE-POST-3PH wires=['336-ACSR-WP-18X1' '336-ACSR-WP-18X1' '336-ACSR-WP-18X1' '1/0-ACSR-B-6X1']
New Line.263815486 Bus1=263815483.1     Bus2=261085132.1     LineCode=1/0-AL-TRXLPELCJ-15KV Phases= 1 Length=297.80 units=m enable=yes
New Line.259545336 Phases= 3 Bus1=259545333.1.2.3 Bus2=259545338.1.2.3 Length=53.72  units=m  Spacing=8'-ARM-STANDARD-3PH wires=['2-ACSR-B-6X1' '2-ACSR-B-6X1' '2-ACSR-B-6X1' '2-ACSR-B-6X1']
New Line.460932566 Phases= 3 Bus1=258840430.1.2.3 Bus2=460932563.1.2.3 Length=57.34  units=m  Spacing=8'-ARM-NON-CENTER-POST-3PH wires=['336-ACSR-WP-18X1' '336-ACSR-WP-18X1' '336-ACSR-WP-18X1' '1/0-ACSR-B-6X1']
New Line.263697813 Phases= 3 Bus1=258840164.1.2.3 Bus2=263697815.1.2.3 Length=1.52   units=m  Spacing=8'-ARM-STANDARD-3PH wires=['1/0-ACSR-B-6X1' '1/0-ACSR-B-6X1' '1/0-ACSR-B-6X1' '1/0-ACSR-B-6X1']
New Line.258850698 Phases= 3 Bus1=258850695.1.2.3 Bus2=258850700.1.2.3 Length=26.91  units=m  Spacing=HORIZ-LINE-POST-3PH wires=['336-ACSR-B-18X1' '336-ACSR-B-18X1' '336-ACSR-B-18X1' '1/0-ACSR-B-6X1']
New Line.259223116 Phases= 3 Bus1=258840215.1.2.3 Bus2=258840219.1.2.3 Length=23.19  units=m  Spacing=8'-ARM-NON-CENTER-POST-3PH wires=['336-ACSR-B-18X1' '336-ACSR-B-18X1' '336-ACSR-B-18X1' '1/0-ACSR-B-6X1']
New Line.258839919 Phases= 3 Bus1=258839916.1.2.3 Bus2=258839921.1.2.3 Length=47.43  units=m  Spacing=8'-ARM-NON-CENTER-POST-3PH wires=['336-ACSR-WP-18X1' '336-ACSR-WP-18X1' '336-ACSR-WP-18X1' '1/0-ACSR-B-6X1']
New Line.258851400 Phases= 2 Bus1=258851397.1.2   Bus2=258851402.1.2   Length=95.88  units=m  Spacing=8'-ARM-STANDARD-2PH wires=['6-CU-B-S' '6-CU-B-S' '2-CU-B-7']
New Line.263515001 Phases= 3 Bus1=258850970.1.2.3 Bus2=263515003.1.2.3 Length=1.52   units=m  Spacing=8'-ARM-NON-CENTER-POST-3PH wires=['2-ACSR-B-6X1' '2-ACSR-B-6X1' '2-ACSR-B-6X1' '2-ACSR-B-6X1']
New Line.258840203 Phases= 3 Bus1=258840200.1.2.3 Bus2=258840205.1.2.3 Length=48.64  units=m  Spacing=8'-ARM-NON-CENTER-POST-3PH wires=['336-ACSR-B-18X1' '336-ACSR-B-18X1' '336-ACSR-B-18X1' '2-CU-B-7']
New Line.258839914 Phases= 3 Bus1=258839911.1.2.3 Bus2=258839916.1.2.3 Length=10.19  units=m  Spacing=8'-ARM-NON-CENTER-POST-3PH wires=['336-ACSR-WP-18X1' '336-ACSR-WP-18X1' '336-ACSR-WP-18X1' '1/0-ACSR-B-6X1']
New Line.259371846 Phases= 1 Bus1=259371843.1     Bus2=259371848.1     Length=83.02  units=m  Spacing=VERTICAL-1-PH-104-1PH wires=['2-ACSR-B-6X1' '2-ACSR-B-6X1']
New Line.258851353 Phases= 2 Bus1=258851348.1.3   Bus2=258851355.1.3   Length=93.98  units=m  Spacing=8'-ARM-STANDARD-2PH wires=['6-CU-B-S' '6-CU-B-S' '2-CU-B-7']
New Line.258839961 Phases= 3 Bus1=258839958.1.2.3 Bus2=258839963.1.2.3 Length=15.44  units=m  Spacing=8'-ARM-STANDARD-3PH wires=['2-ACSR-B-6X1' '2-ACSR-B-6X1' '2-ACSR-B-6X1' '2-ACSR-B-6X1']
New Line.258851296 Phases= 3 Bus1=258851293.1.2.3 Bus2=258851298.1.2.3 Length=12.22  units=m  Spacing=8'-ARM-NON-CENTER-POST-3PH wires=['2-ACSR-B-6X1' '2-ACSR-B-6X1' '2-ACSR-B-6X1' '2-ACSR-B-6X1']
New Line.263565089 Bus1=263565086.1.2.3 Bus2=260784225.1.2.3 LineCode=1/0-AL-HMWPECN-15KV Phases= 3 Length=292.70 units=m enable=yes
New Line.258850673 Phases= 3 Bus1=258850670.1.2.3 Bus2=258850675.1.2.3 Length=18.96  units=m  Spacing=HORIZ-LINE-POST-3PH wires=['336-ACSR-B-18X1' '336-ACSR-B-18X1' '336-ACSR-B-18X1' '1/0-ACSR-B-6X1']
New Line.258851291 Phases= 3 Bus1=258851254.1.2.3 Bus2=258851293.1.2.3 Length=13.33  units=m  Spacing=8'-ARM-NON-CENTER-POST-3PH wires=['2-ACSR-B-6X1' '2-ACSR-B-6X1' '2-ACSR-B-6X1' '2-ACSR-B-6X1']
New Line.263730559 Bus1=259237110.1     Bus2=263730561.1     LineCode=1/0-AL-TRXLPELCJ-15KV Phases= 1 Length=1.52   units=m enable=yes
New Line.258840460 Phases= 3 Bus1=258840457.1.2.3 Bus2=258840462.1.2.3 Length=32.49  units=m  Spacing=8'-ARM-NON-CENTER-POST-3PH wires=['336-ACSR-WP-18X1' '336-ACSR-WP-18X1' '336-ACSR-WP-18X1' '1/0-ACSR-B-6X1']
New Line.263514997 Bus1=263514994.1.2.3 Bus2=260745387.1.2.3 LineCode=1/0-AL-HMWPECN-15KV Phases= 3 Length=12.44  units=m enable=yes
New Line.261002759 Bus1=261002756.1     Bus2=261002761.1     LineCode=1/0-AL-TRXLPELCJ-15KV Phases= 1 Length=188.10 units=m enable=yes
New Line.260745460 Bus1=260745457.2     Bus2=260745462.2     LineCode=1/0-AL-HMWPECN-15KV Phases= 1 Length=73.96  units=m enable=yes
New Line.263701633 Bus1=263701630.1     Bus2=261031154.1     LineCode=1/0-AL-TRXLPELCJ-15KV Phases= 1 Length=467.10 units=m enable=yes
New Line.263661074 Phases= 3 Bus1=259005076.1.2.3 Bus2=263661076.1.2.3 Length=1.52   units=m  Spacing=8'-ARM-STANDARD-3PH wires=['1/0-ACSR-B-6X1' '1/0-ACSR-B-6X1' '1/0-ACSR-B-6X1' '1/0-ACSR-B-6X1']
New Line.258839956 Phases= 3 Bus1=258839953.1.2.3 Bus2=258839958.1.2.3 Length=45.44  units=m  Spacing=8'-ARM-NON-CENTER-POST-3PH wires=['336-ACSR-B-18X1' '336-ACSR-B-18X1' '336-ACSR-B-18X1' '1/0-ACSR-B-6X1']
New Line.258851230 Phases= 1 Bus1=258851227.3     Bus2=258851232.3     Length=67.69  units=m  Spacing=VERTICAL-1-PH-60-1PH wires=['2-ACSR-B-6X1' '2-ACSR-B-6X1']
New Line.260784288 Bus1=260784285.3     Bus2=260784290.3     LineCode=1/0-AL-HMWPECN-15KV Phases= 1 Length=34.40  units=m enable=yes
New Line.260784258 Bus1=260784255.3     Bus2=260784260.3     LineCode=1/0-AL-HMWPECN-15KV Phases= 1 Length=104.80 units=m enable=yes
New Line.469800069 Bus1=264311802.1.2.3 Bus2=469800067.1.2.3 LineCode=1/0-AL-TRXLPELCJ-25KV Phases= 3 Length=1.01   units=m enable=yes
New Line.258851410 Phases= 2 Bus1=258851407.1.2   Bus2=258851412.1.2   Length=71.88  units=m  Spacing=8'-ARM-STANDARD-2PH wires=['6-CU-B-S' '6-CU-B-S' '2-CU-B-7']
New Line.258840455 Phases= 3 Bus1=258840452.1.2.3 Bus2=258840457.1.2.3 Length=40.90  units=m  Spacing=8'-ARM-NON-CENTER-POST-3PH wires=['336-ACSR-WP-18X1' '336-ACSR-WP-18X1' '336-ACSR-WP-18X1' '1/0-ACSR-B-6X1']
New Line.259983252 Phases= 1 Bus1=259371838.1     Bus2=259371842.1     Length=35.92  units=m  Spacing=VERTICAL-1-PH-104-1PH wires=['2-ACSR-B-6X1' '2-ACSR-B-6X1']
New Line.264304369 Bus1=261107771.1     Bus2=264304367.1     LineCode=1/0-AL-TRXLPELCJ-15KV Phases= 1 Length=95.62  units=m enable=yes
New Line.264494179 Phases= 3 Bus1=258839906.1.2.3 Bus2=264494181.1.2.3 Length=1.52   units=m  Spacing=8'-ARM-NON-CENTER-POST-3PH wires=['336-ACSR-WP-18X1' '336-ACSR-WP-18X1' '336-ACSR-WP-18X1' '1/0-ACSR-B-6X1']
New Line.258850997 Phases= 3 Bus1=258850994.1.2.3 Bus2=258850999.1.2.3 Length=15.48  units=m  Spacing=8'-ARM-NON-CENTER-POST-3PH wires=['2-ACSR-B-6X1' '2-ACSR-B-6X1' '2-ACSR-B-6X1' '2-ACSR-B-6X1']
New Line.258850653 Phases= 3 Bus1=258850650.1.2.3 Bus2=258850655.1.2.3 Length=235.00 units=m  Spacing=HORIZ-LINE-POST-3PH wires=['336-ACSR-B-18X1' '336-ACSR-B-18X1' '336-ACSR-B-18X1' '1/0-ACSR-B-6X1']
New Line.259004993 Phases= 3 Bus1=259004995.1.2.3 Bus2=259004990.1.2.3 Length=120.80 units=m  Spacing=HORIZ-LINE-POST-3PH wires=['336-ACSR-WP-18X1' '336-ACSR-WP-18X1' '336-ACSR-WP-18X1' '1/0-ACSR-B-6X1']
New Line.263515123 Bus1=263515120.1     Bus2=260745447.1     LineCode=1/0-AL-HMWPECN-15KV Phases= 1 Length=149.80 units=m enable=yes
New Line.261002694 Bus1=261002695.1     Bus2=261002696.1     LineCode=1/0-AL-TRXLPELCJ-15KV Phases= 1 Length=23.09  units=m enable=yes
New Line.258851205 Phases= 3 Bus1=258851202.1.2.3 Bus2=258851207.1.2.3 Length=19.56  units=m  Spacing=8'-ARM-NON-CENTER-POST-3PH wires=['2-ACSR-B-6X1' '2-ACSR-B-6X1' '2-ACSR-B-6X1' '1/0-ACSR-B-6X1']
New Line.472684339 Bus1=261124288.1.2.3 Bus2=261124289.1.2.3 LineCode=1/0-AL-TRXLPELCJ-25KV Phases= 3 Length=171.30 units=m enable=yes
New Line.258840285 Phases= 3 Bus1=258840282.1.2.3 Bus2=258840287.1.2.3 Length=37.86  units=m  Spacing=8'-ARM-NON-CENTER-POST-3PH wires=['336-ACSR-B-18X1' '336-ACSR-B-18X1' '336-ACSR-B-18X1' '2-CU-B-7']
New Line.258839899 Phases= 3 Bus1=258839896.1.2.3 Bus2=258839901.1.2.3 Length=23.98  units=m  Spacing=8'-ARM-NON-CENTER-POST-3PH wires=['336-ACSR-B-18X1' '336-ACSR-B-18X1' '336-ACSR-B-18X1' '1/0-ACSR-B-6X1']
New Line.258851316 Phases= 3 Bus1=258851313.1.2.3 Bus2=258851318.1.2.3 Length=3.06   units=m  Spacing=8'-ARM-STANDARD-3PH wires=['2-ACSR-B-6X1' '2-ACSR-B-6X1' '2-ACSR-B-6X1' '2-ACSR-B-6X1']
New Line.264494188 Phases= 3 Bus1=258839995.1.2.3 Bus2=264494190.1.2.3 Length=1.52   units=m  Spacing=8'-ARM-NON-CENTER-POST-3PH wires=['336-ACSR-B-18X1' '336-ACSR-B-18X1' '336-ACSR-B-18X1' '2-CU-B-7']
New Line.259237108 Phases= 2 Bus1=259004980.1.2   Bus2=259237110.1.2   Length=22.94  units=m  Spacing=8'-ARM-STANDARD-2PH wires=['2-ACSR-B-6X1' '2-ACSR-B-6X1' '2-ACSR-B-6X1']
New Line.258851032 Phases= 3 Bus1=258851029.1.2.3 Bus2=258851034.1.2.3 Length=20.01  units=m  Spacing=8'-ARM-NON-CENTER-POST-3PH wires=['2-ACSR-B-6X1' '2-ACSR-B-6X1' '2-ACSR-B-6X1' '2-ACSR-B-6X1']
New Line.258851445 Phases= 3 Bus1=258851446.1.2.3 Bus2=258851447.1.2.3 Length=16.85  units=m  Spacing=8'-ARM-STANDARD-3PH wires=['1/0-ACSR-B-6X1' '1/0-ACSR-B-6X1' '1/0-ACSR-B-6X1' '1/0-ACSR-B-6X1']
New Line.258840364 Phases= 3 Bus1=258840365.1.2.3 Bus2=258840366.1.2.3 Length=16.75  units=m  Spacing=8'-ARM-STANDARD-3PH wires=['2-ACSR-B-6X1' '2-ACSR-B-6X1' '2-ACSR-B-6X1' '2-ACSR-B-6X1']
New Line.258840240 Phases= 3 Bus1=258840235.1.2.3 Bus2=258840242.1.2.3 Length=87.18  units=m  Spacing=8'-ARM-NON-CENTER-POST-3PH wires=['336-ACSR-B-18X1' '336-ACSR-B-18X1' '336-ACSR-B-18X1' '2-CU-B-7']
New Line.263862879 Phases= 1 Bus1=263862876.1     Bus2=259371838.1     Length=25.28  units=m  Spacing=VERTICAL-1-PH-104-1PH wires=['2-ACSR-B-6X1' '2-ACSR-B-6X1']
New Line.258850552 Phases= 3 Bus1=258850549.1.2.3 Bus2=258850554.1.2.3 Length=21.32  units=m  Spacing=HORIZ-LINE-POST-3PH wires=['336-ACSR-B-18X1' '336-ACSR-B-18X1' '336-ACSR-B-18X1' '1/0-ACSR-B-6X1']
New Line.258851390 Phases= 1 Bus1=258851387.2     Bus2=258851392.2     Length=34.55  units=m  Spacing=VERTICAL-1-PH-60-1PH wires=['2-ACSR-B-6X1' '2-CU-B-7']
New Line.261002719 Bus1=261002716.2     Bus2=261002721.2     LineCode=1/0-AL-TRXLPELCJ-15KV Phases= 1 Length=61.87  units=m enable=yes
New Line.263511752 Phases= 1 Bus1=258840297.1     Bus2=263511754.1     Length=1.52   units=m  Spacing=VERTICAL-1-PH-60-1PH wires=['2-ACSR-B-6X1' '1/0-ACSR-B-6X1']
New Line.260972119 Bus1=260972116.3     Bus2=260972080.3     LineCode=1/0-AL-TRXLPELCJ-15KV Phases= 1 Length=127.60 units=m enable=yes
New Line.264530184 Phases= 1 Bus1=259004990.1     Bus2=264530186.1     Length=1.52   units=m  Spacing=VERTICAL-1-PH-104-1PH wires=['1/0-ACSR-B-6X1' '1/0-ACSR-B-6X1']
New Line.260972084 Bus1=260972085.3     Bus2=260972081.3     LineCode=1/0-AL-TRXLPELCJ-15KV Phases= 1 Length=112.20 units=m enable=yes
New Line.258850946 Phases= 3 Bus1=258850941.1.2.3 Bus2=258850948.1.2.3 Length=40.59  units=m  Spacing=8'-ARM-NON-CENTER-POST-3PH wires=['2-ACSR-B-6X1' '2-ACSR-B-6X1' '2-ACSR-B-6X1' '2-ACSR-B-6X1']
New Line.263514835 Bus1=263514832.1.2.3 Bus2=260745334.1.2.3 LineCode=1/0-AL-HMWPECN-15KV Phases= 3 Length=26.55  units=m enable=yes
New Line.263515033 Bus1=263515030.1     Bus2=260745412.1     LineCode=1/0-AL-HMWPECN-15KV Phases= 1 Length=25.83  units=m enable=yes
New Line.258851153 Phases= 3 Bus1=258851128.1.2.3 Bus2=258851155.1.2.3 Length=38.98  units=m  Spacing=8'-ARM-NON-CENTER-POST-3PH wires=['2-ACSR-B-6X1' '2-ACSR-B-6X1' '2-ACSR-B-6X1' '1/0-ACSR-B-6X1']
New Line.263565093 Bus1=259005099.1.2.3 Bus2=263565095.1.2.3 LineCode=1/0-AL-HMWPECN-15KV Phases= 3 Length=1.52   units=m enable=yes
New Line.258839869 Phases= 3 Bus1=258839864.1.2.3 Bus2=258839871.1.2.3 Length=197.80 units=m  Spacing=8'-ARM-NON-CENTER-POST-3PH wires=['336-ACSR-B-18X1' '336-ACSR-B-18X1' '336-ACSR-B-18X1' '1/0-ACSR-B-6X1']
New Line.263761827 Phases= 3 Bus1=263761824.1.2.3 Bus2=258850586.1.2.3 Length=50.24  units=m  Spacing=8'-ARM-NON-CENTER-POST-3PH wires=['1/0-ACSR-B-6X1' '1/0-ACSR-B-6X1' '1/0-ACSR-B-6X1' '1/0-ACSR-B-6X1']
New Line.263514875 Bus1=258850705.1.2.3 Bus2=263514877.1.2.3 LineCode=1/0-AL-HMWPECN-15KV Phases= 3 Length=1.52   units=m enable=yes
New Line.258850763 Phases= 3 Bus1=258850760.1.2.3 Bus2=258850765.1.2.3 Length=4.67   units=m  Spacing=8'-ARM-NON-CENTER-POST-3PH wires=['2-ACSR-B-6X1' '2-ACSR-B-6X1' '2-ACSR-B-6X1' '2-ACSR-B-6X1']
New Line.258840223 Phases= 3 Bus1=258840220.1.2.3 Bus2=258840225.1.2.3 Length=71.37  units=m  Spacing=8'-ARM-NON-CENTER-POST-3PH wires=['336-ACSR-B-18X1' '336-ACSR-B-18X1' '336-ACSR-B-18X1' '2-CU-B-7']
New Line.263761836 Phases= 3 Bus1=263761833.1.2.3 Bus2=258840012.1.2.3 Length=19.51  units=m  Spacing=8'-ARM-NON-CENTER-POST-3PH wires=['336-ACSR-B-18X1' '336-ACSR-B-18X1' '336-ACSR-B-18X1' '2-CU-B-7']
New Line.258840310 Phases= 3 Bus1=258840307.1.2.3 Bus2=258840312.1.2.3 Length=53.23  units=m  Spacing=8'-ARM-NON-CENTER-POST-3PH wires=['336-ACSR-B-18X1' '336-ACSR-B-18X1' '336-ACSR-B-18X1' '2-CU-B-7']
New Line.258850688 Phases= 3 Bus1=258850685.1.2.3 Bus2=258850690.1.2.3 Length=18.09  units=m  Spacing=HORIZ-LINE-POST-3PH wires=['336-ACSR-B-18X1' '336-ACSR-B-18X1' '336-ACSR-B-18X1' '1/0-ACSR-B-6X1']
New Line.259237103 Phases= 2 Bus1=259004984.1.2   Bus2=259237105.1.2   Length=22.92  units=m  Spacing=8'-ARM-STANDARD-2PH wires=['2-ACSR-B-6X1' '2-ACSR-B-6X1' '2-ACSR-B-6X1']
New Line.264275003 Bus1=264275005.3     Bus2=260972081.3     LineCode=1/0-AL-TRXLPELCJ-15KV Phases= 1 Length=1.52   units=m enable=no
New Line.258850663 Phases= 3 Bus1=258850660.1.2.3 Bus2=258850665.1.2.3 Length=75.08  units=m  Spacing=HORIZ-LINE-POST-3PH wires=['336-ACSR-B-18X1' '336-ACSR-B-18X1' '336-ACSR-B-18X1' '1/0-ACSR-B-6X1']
New Line.258850753 Phases= 3 Bus1=258850754.1.2.3 Bus2=258850755.1.2.3 Length=4.80   units=m  Spacing=8'-ARM-NON-CENTER-POST-3PH wires=['2-ACSR-B-6X1' '2-ACSR-B-6X1' '2-ACSR-B-6X1' '2-ACSR-B-6X1']
New Line.263730564 Bus1=263730561.1     Bus2=261002746.1     LineCode=1/0-AL-TRXLPELCJ-15KV Phases= 1 Length=79.05  units=m enable=yes
New Line.258851017 Phases= 1 Bus1=258851014.2     Bus2=258851019.2     Length=162.30 units=m  Spacing=VERTICAL-1-PH-60-1PH wires=['2-ACSR-B-6X1' '2-ACSR-B-6X1']
New Line.264316524 Bus1=261002700.1     Bus2=264316522.1     LineCode=1/0-AL-TRXLPELCJ-15KV Phases= 1 Length=58.04  units=m enable=yes
New Line.258850992 Phases= 3 Bus1=258850989.1.2.3 Bus2=258850994.1.2.3 Length=18.02  units=m  Spacing=8'-ARM-NON-CENTER-POST-3PH wires=['2-ACSR-B-6X1' '2-ACSR-B-6X1' '2-ACSR-B-6X1' '2-ACSR-B-6X1']
New Line.259360389 Phases= 3 Bus1=259172461.1.2.3 Bus2=259207082.1.2.3 Length=28.07  units=m  Spacing=8'-ARM-STANDARD-3PH wires=['1/0-ACSR-B-6X1' '1/0-ACSR-B-6X1' '1/0-ACSR-B-6X1' '1/0-ACSR-B-6X1']
New Line.258850648 Phases= 3 Bus1=258850645.1.2.3 Bus2=258850650.1.2.3 Length=15.17  units=m  Spacing=HORIZ-LINE-POST-3PH wires=['336-ACSR-B-18X1' '336-ACSR-B-18X1' '336-ACSR-B-18X1' '1/0-ACSR-B-6X1']
New Line.258840260 Phases= 3 Bus1=258840257.1.2.3 Bus2=258840262.1.2.3 Length=34.79  units=m  Spacing=8'-ARM-NON-CENTER-POST-3PH wires=['336-ACSR-B-18X1' '336-ACSR-B-18X1' '336-ACSR-B-18X1' '2-CU-B-7']
New Line.263515105 Phases= 1 Bus1=263515102.3     Bus2=258851222.3     Length=7.53   units=m  Spacing=VERTICAL-1-PH-60-1PH wires=['2-ACSR-B-6X1' '2-ACSR-B-6X1']
New Line.263515055 Bus1=258851096.2     Bus2=263515057.2     LineCode=1/0-AL-HMWPECN-15KV Phases= 1 Length=1.52   units=m enable=yes
New Line.258851225 Phases= 1 Bus1=258851222.3     Bus2=258851227.3     Length=74.55  units=m  Spacing=VERTICAL-1-PH-60-1PH wires=['2-ACSR-B-6X1' '2-ACSR-B-6X1']
New Line.263515127 Phases= 2 Bus1=258840190.1.3   Bus2=263515129.1.3   Length=1.53   units=m  Spacing=8'-ARM-STANDARD-2PH wires=['6-CU-B-S' '6-CU-B-S' '6-CU-B-S']
New Line.264494197 Phases= 3 Bus1=258840047.1.2.3 Bus2=264494199.1.2.3 Length=1.53   units=m  Spacing=8'-ARM-NON-CENTER-POST-3PH wires=['336-ACSR-B-18X1' '336-ACSR-B-18X1' '336-ACSR-B-18X1' '2-CU-B-7']
New Line.258851341 Phases= 2 Bus1=258851338.1.3   Bus2=258851343.1.3   Length=6.56   units=m  Spacing=8'-ARM-STANDARD-2PH wires=['6-CU-B-S' '6-CU-B-S' '2-CU-B-7']
New Line.460932399 Bus1=259357189.1.2.3 Bus2=460932401.1.2.3 LineCode=1/0-AL-TRXLPELCJ-25KV Phases= 3 Length=1.52   units=m enable=yes