!	BELLHAVEN	BELLHAVEN	BELLHAVEN

New Transformer.BELLHAVEN_RET_01291204 Phases=3 Windings=2 XHL=0.1 %LoadLoss=0.001 Buses=[BELLHAVEN_RET_01291204.1.2.3 BELLHAVEN_RET_01291204_reg.1.2.3] kVs=[ 7.19955785679463   7.19955785679463 ]

New RegControl.BELLHAVEN_RET_01291204 Transformer=BELLHAVEN_RET_01291204 Winding=2 
~ Vreg= 120.000002416772  Band= 1 PTratio= 59.9963154732886  CTPrim= 100  R= 0  X= 0 delay=30