New Transformer.BELLHAVEN_RET_01291204_1 Phases=1 Windings=2 XHL=0.1 %LoadLoss=0.001 Buses=[BELLHAVEN_RET_01291204.1 BELLHAVEN_RET_01291204_reg.1] kVs=[ 7.19955785679463   7.19955785679463 ]
New RegControl.BELLHAVEN_RET_01291204_1 Transformer=BELLHAVEN_RET_01291204_1 Winding=2 Vreg= 120.000002416772  Band= 1 PTratio= 59.9963154732886  CTPrim= 100  R= 0  X= 0 
New Transformer.BELLHAVEN_RET_01291204_2 Phases=1 Windings=2 XHL=0.1 %LoadLoss=0.001 Buses=[BELLHAVEN_RET_01291204.2 BELLHAVEN_RET_01291204_reg.2] kVs=[ 7.19955785679463   7.19955785679463 ]
New RegControl.BELLHAVEN_RET_01291204_2 Transformer=BELLHAVEN_RET_01291204_2 Winding=2 Vreg= 120.000002416772  Band= 1 PTratio= 59.9963154732886  CTPrim= 100  R= 0  X= 0 
New Transformer.BELLHAVEN_RET_01291204_3 Phases=1 Windings=2 XHL=0.1 %LoadLoss=0.001 Buses=[BELLHAVEN_RET_01291204.3 BELLHAVEN_RET_01291204_reg.3] kVs=[ 7.19955785679463   7.19955785679463 ]
New RegControl.BELLHAVEN_RET_01291204_3 Transformer=BELLHAVEN_RET_01291204_3 Winding=2 Vreg= 120.000002416772  Band= 1 PTratio= 59.9963154732886  CTPrim= 100  R= 0  X= 0 
