New Line.254448650 Phases= 3 Bus1=254448647.1.2.3 Bus2=254448652.1.2.3 Length=68.86  units=m  Spacing=8'-ARM-NON-CENTER-POST-3PH wires=['336-ACSR-B-18X1' '336-ACSR-B-18X1' '336-ACSR-B-18X1' '1/0-ACSR-B-6X1']
New Line.261283233 Bus1=260949067.3     Bus2=261283235.3     LineCode=1/0-AL-HMWPECN-25KV Phases= 1 Length=41.64  units=m enable=yes
New Line.254449461 Phases= 1 Bus1=254449458.1     Bus2=254449463.1     Length=50.76  units=m  Spacing=VERTICAL-1-PH-60-1PH wires=['1/0-ACSR-WP-6X1' '2-ACSR-WP-6X1']
New Line.254449182 Phases= 3 Bus1=254449179.1.2.3 Bus2=254449184.1.2.3 Length=61.43  units=m  Spacing=8'-ARM-NON-CENTER-POST-3PH wires=['336-ACSR-B-18X1' '336-ACSR-B-18X1' '336-ACSR-B-18X1' '1/0-ACSR-B-6X1']
New Line.254432850 Phases= 1 Bus1=254432847.1     Bus2=254432852.1     Length=37.24  units=m  Spacing=VERTICAL-1-PH-60-1PH wires=['2-ACSR-B-6X1' '2-ACSR-B-6X1']
New Line.254460601 Phases= 1 Bus1=254460598.3     Bus2=254460603.3     Length=104.70 units=m  Spacing=VERTICAL-1-PH-60-1PH wires=['1/0-ACSR-B-6X1' '1/0-ACSR-B-6X1']
New Line.262296309 Phases= 1 Bus1=262296306.2     Bus2=254454935.2     Length=80.71  units=m  Spacing=VERTICAL-1-PH-60-1PH wires=['2-ACSR-B-6X1' '2-ACSR-B-6X1']
New Line.254449202 Phases= 3 Bus1=254449199.1.2.3 Bus2=254449204.1.2.3 Length=44.37  units=m  Spacing=8'-ARM-NON-CENTER-POST-3PH wires=['1/0-ACSR-B-6X1' '1/0-ACSR-B-6X1' '1/0-ACSR-B-6X1' '1/0-ACSR-B-6X1']
New Line.254455198 Phases= 1 Bus1=254455195.2     Bus2=254455205.2     Length=334.70 units=m  Spacing=VERTICAL-1-PH-60-1PH wires=['4-ACSR-B-6X1' '4-ACSR-B-6X1']
New Line.254461060 Phases= 3 Bus1=254461051.1.2.3 Bus2=254461062.1.2.3 Length=22.08  units=m  Spacing=8'-ARM-STANDARD-3PH wires=['2-ACSR-B-6X1' '2-ACSR-B-6X1' '2-ACSR-B-6X1' '2-ACSR-B-6X1']
New Line.262296403 Phases= 1 Bus1=254455277.1     Bus2=262296405.1     Length=1.53   units=m  Spacing=VERTICAL-1-PH-60-1PH wires=['2-ACSR-B-6X1' '2-ACSR-B-6X1']
New Line.474204068 Phases= 1 Bus1=254455155.2     Bus2=474204070.2     Length=1.51   units=m  Spacing=VERTICAL-1-PH-104-1PH wires=['1/0-ACSR-B-6X1' '1/0-ACSR-B-6X1']
New Line.254460301 Phases= 2 Bus1=254460298.2.3   Bus2=254460303.2.3   Length=6.80   units=m  Spacing=8'-ARM-STANDARD-2PH wires=['4-ACSR-B-6X1' '4-ACSR-B-6X1' '4-ACSR-B-6X1']
New Line.259498701 Phases= 1 Bus1=254454853.2     Bus2=259498703.2     Length=30.57  units=m  Spacing=VERTICAL-1-PH-104-1PH wires=['1/0-ACSR-B-6X1' '1/0-ACSR-B-6X1']
New Line.254460092 Phases= 1 Bus1=254460089.3     Bus2=254460094.3     Length=119.50 units=m  Spacing=VERTICAL-1-PH-60-1PH wires=['1/0-ACSR-B-6X1' '1/0-ACSR-B-6X1']
New Line.264426016 Phases= 1 Bus1=264426013.1     Bus2=254454701.1     Length=157.50 units=m  Spacing=VERTICAL-1-PH-60-1PH wires=['2-ACSR-B-6X1' '2-ACSR-B-6X1']
New Line.262294615 Phases= 1 Bus1=254448281.1     Bus2=262294617.1     Length=1.53   units=m  Spacing=VERTICAL-1-PH-60-1PH wires=['1/0-ACSR-B-6X1' '1/0-ACSR-B-6X1']
New Line.254449331 Phases= 1 Bus1=254449328.2     Bus2=254449333.2     Length=34.62  units=m  Spacing=VERTICAL-1-PH-60-1PH wires=['1/0-ACSR-B-6X1' '1/0-ACSR-B-6X1']
New Line.254460636 Phases= 1 Bus1=254460633.1     Bus2=254460638.1     Length=31.23  units=m  Spacing=VERTICAL-1-PH-60-1PH wires=['2-ACSR-B-6X1' '2-ACSR-B-6X1']
New Line.254455233 Phases= 1 Bus1=254455230.2     Bus2=254455235.2     Length=332.90 units=m  Spacing=VERTICAL-1-PH-60-1PH wires=['1/0-ACSR-B-6X1' '1/0-ACSR-B-6X1']
New Line.259565005 Phases= 3 Bus1=254454360.1.2.3 Bus2=259565007.1.2.3 Length=26.49  units=m  Spacing=8'-ARM-STANDARD-3PH wires=['1/0-ACSR-B-6X1' '1/0-ACSR-B-6X1' '1/0-ACSR-B-6X1' '1/0-ACSR-B-6X1']
New Line.254455305 Phases= 1 Bus1=254455302.1     Bus2=254455307.1     Length=30.84  units=m  Spacing=VERTICAL-1-PH-60-1PH wires=['2-ACSR-B-6X1' '2-ACSR-B-6X1']
New Line.411747300 Phases= 1 Bus1=254460538.2     Bus2=254460548.2     Length=178.80 units=m  Spacing=VERTICAL-1-PH-60-1PH wires=['2-ACSR-B-6X1' '2-ACSR-B-6X1']
New Line.254432855 Phases= 1 Bus1=254432852.1     Bus2=254432857.1     Length=111.80 units=m  Spacing=VERTICAL-1-PH-60-1PH wires=['2-ACSR-B-6X1' '2-ACSR-B-6X1']
New Line.262290646 Phases= 1 Bus1=254432887.2     Bus2=262290648.2     Length=1.53   units=m  Spacing=VERTICAL-1-PH-60-1PH wires=['4-ACSR-B-6X1' '4-ACSR-B-6X1']
New Line.698880538 Phases= 3 Bus1=698880535.1.2.3 Bus2=254466522.1.2.3 Length=31.55  units=m  Spacing=8'-ARM-NON-CENTER-POST-3PH wires=['1/0-ACSR-B-6X1' '1/0-ACSR-B-6X1' '1/0-ACSR-B-6X1' '1/0-ACSR-B-6X1']
New Line.254449140 Phases= 3 Bus1=254449122.1.2.3 Bus2=254449142.1.2.3 Length=98.09  units=m  Spacing=8'-ARM-NON-CENTER-POST-3PH wires=['336-ACSR-B-18X1' '336-ACSR-B-18X1' '336-ACSR-B-18X1' '1/0-ACSR-B-6X1']
New Line.254449376 Phases= 1 Bus1=254449363.2     Bus2=254449378.2     Length=77.36  units=m  Spacing=VERTICAL-1-PH-60-1PH wires=['4-ACSR-B-6X1' '4-ACSR-B-6X1']
New Line.620370231 Phases= 1 Bus1=620370152.3     Bus2=620370082.3     Length=19.61  units=m  Spacing=VERTICAL-1-PH-104-1PH wires=['2-ACSR-B-6X1' '2-ACSR-B-6X1']
New Line.254454704 Phases= 1 Bus1=254454701.1     Bus2=254454706.1     Length=93.19  units=m  Spacing=VERTICAL-1-PH-60-1PH wires=['2-ACSR-B-6X1' '2-ACSR-B-6X1']
New Line.259509899 Phases= 1 Bus1=254460044.2     Bus2=259509901.2     Length=80.81  units=m  Spacing=VERTICAL-1-PH-104-1PH wires=['2-ACSR-B-6X1' '2-ACSR-B-6X1']
New Line.262294642 Phases= 1 Bus1=254448353.2     Bus2=262294644.2     Length=1.52   units=m  Spacing=VERTICAL-1-PH-60-1PH wires=['4-ACSR-B-6X1' '4-ACSR-B-6X1']
New Line.264195425 Bus1=260118361.1     Bus2=264195423.1     LineCode=1/0-AL-HMWPECN-25KV Phases= 1 Length=135.80 units=m enable=yes
New Line.262296552 Phases= 1 Bus1=262296549.1     Bus2=254455596.1     Length=74.91  units=m  Spacing=VERTICAL-1-PH-60-1PH wires=['2-ACSR-B-6X1' '2-ACSR-B-6X1']
New Line.254460416 Phases= 2 Bus1=254460408.2.3   Bus2=254460418.2.3   Length=51.78  units=m  Spacing=8'-ARM-STANDARD-2PH wires=['4-ACSR-B-6X1' '4-ACSR-B-6X1' '4-ACSR-B-6X1']
New Line.254454378 Phases= 1 Bus1=254454379.2     Bus2=254454380.2     Length=100.70 units=m  Spacing=VERTICAL-1-PH-60-1PH wires=['2-ACSR-B-6X1' '2-ACSR-B-6X1']
New Line.263606963 Bus1=263606960.3     Bus2=260848169.3     LineCode=1/0-AL-TRXLPELCJ-25KV Phases= 1 Length=87.95  units=m enable=yes
New Line.254454331 Phases= 1 Bus1=254454316.3     Bus2=254454333.3     Length=91.74  units=m  Spacing=VERTICAL-1-PH-60-1PH wires=['1/0-ACSR-B-6X1' '1/0-ACSR-B-6X1']
New Line.262294813 Bus1=254448949.1.2.3 Bus2=262294815.1.2.3 LineCode=1/0-AL-HMWPECN-25KV Phases= 3 Length=1.52   units=m enable=yes
New Line.254448264 Phases= 3 Bus1=254448261.1.2.3 Bus2=254448266.1.2.3 Length=45.40  units=m  Spacing=8'-ARM-NON-CENTER-POST-3PH wires=['4-ACSR-B-6X1' '4-ACSR-B-6X1' '4-ACSR-B-6X1' '4-ACSR-B-6X1']
New Line.254459860 Phases= 1 Bus1=254459837.3     Bus2=254459862.3     Length=55.19  units=m  Spacing=VERTICAL-1-PH-60-1PH wires=['2-ACSR-B-6X1' '2-ACSR-B-6X1']
New Line.264425930 Phases= 1 Bus1=254449328.2     Bus2=264425932.2     Length=1.52   units=m  Spacing=VERTICAL-1-PH-60-1PH wires=['4-ACSR-B-6X1' '4-ACSR-B-6X1']
New Line.254459937 Phases= 1 Bus1=254459934.2     Bus2=254459939.2     Length=24.82  units=m  Spacing=VERTICAL-1-PH-60-1PH wires=['1/0-ACSR-B-6X1' '1/0-ACSR-B-6X1']
New Line.254455223 Phases= 1 Bus1=254455220.2     Bus2=254455225.2     Length=253.90 units=m  Spacing=VERTICAL-1-PH-60-1PH wires=['2-ACSR-B-6X1' '2-ACSR-B-6X1']
New Line.262298083 Phases= 1 Bus1=262298080.2     Bus2=254460008.2     Length=204.70 units=m  Spacing=VERTICAL-1-PH-60-1PH wires=['2-ACSR-B-6X1' '2-ACSR-B-6X1']
New Line.615949305 Phases= 3 Bus1=615949306.1.2.3 Bus2=615949307.1.2.3 Length=1.52   units=m  Spacing=8'-ARM-STANDARD-3PH wires=['1/0-ACSR-B-6X1' '1/0-ACSR-B-6X1' '1/0-ACSR-B-6X1' '1/0-ACSR-B-6X1']
New Line.254454664 Phases= 1 Bus1=254454661.1     Bus2=254454666.1     Length=36.67  units=m  Spacing=VERTICAL-1-PH-60-1PH wires=['1/0-ACSR-B-6X1' '1/0-ACSR-B-6X1']
New Line.262296165 Phases= 3 Bus1=262296162.1.2.3 Bus2=254454296.1.2.3 Length=15.76  units=m  Spacing=8'-ARM-NON-CENTER-POST-3PH wires=['2-ACSR-B-6X1' '2-ACSR-B-6X1' '2-ACSR-B-6X1' '2-ACSR-B-6X1']
New Line.262298150 Phases= 1 Bus1=254460423.2     Bus2=262298152.2     Length=1.52   units=m  Spacing=VERTICAL-1-PH-60-1PH wires=['2-ACSR-B-6X1' '2-ACSR-B-6X1']
New Line.254454746 Phases= 3 Bus1=254454743.1.2.3 Bus2=254454748.1.2.3 Length=68.53  units=m  Spacing=8'-ARM-NON-CENTER-POST-3PH wires=['2-ACSR-B-6X1' '2-ACSR-B-6X1' '1/0-ACSR-B-6X1' '2-ACSR-B-6X1']
New Line.254466584 Phases= 3 Bus1=254466537.1.2.3 Bus2=254466586.1.2.3 Length=56.35  units=m  Spacing=8'-ARM-NON-CENTER-POST-3PH wires=['1/0-ACSR-B-6X1' '1/0-ACSR-B-6X1' '1/0-ACSR-B-6X1' '1/0-ACSR-B-6X1']
New Line.794948302 Phases= 1 Bus1=254449271.1     Bus2=794948300.1     Length=149.20 units=m  Spacing=VERTICAL-1-PH-60-1PH wires=['2-ACSR-B-6X1' '2-ACSR-B-6X1']
New Line.254432512 Phases= 3 Bus1=254432509.1.2.3 Bus2=254432514.1.2.3 Length=249.50 units=m  Spacing=8'-ARM-NON-CENTER-POST-3PH wires=['2-CU-B-7' '2-CU-B-7' '2-CU-B-7' '4-CU-B-7']
New Line.254460351 Phases= 1 Bus1=254460338.2     Bus2=254460353.2     Length=72.07  units=m  Spacing=VERTICAL-1-PH-60-1PH wires=['4-ACSR-B-6X1' '4-ACSR-B-6X1']
New Line.262294732 Phases= 1 Bus1=254448652.3     Bus2=262294734.3     Length=1.53   units=m  Spacing=VERTICAL-1-PH-60-1PH wires=['4-ACSR-B-6X1' '4-ACSR-B-6X1']
New Line.254448884 Phases= 3 Bus1=254448871.1.2.3 Bus2=254448886.1.2.3 Length=51.97  units=m  Spacing=8'-ARM-NON-CENTER-POST-3PH wires=['336-ACSR-B-18X1' '336-ACSR-B-18X1' '336-ACSR-B-18X1' '1/0-ACSR-B-6X1']
New Line.254455078 Phases= 1 Bus1=254455050.2     Bus2=254455080.2     Length=108.70 units=m  Spacing=VERTICAL-1-PH-60-1PH wires=['2-ACSR-B-6X1' '2-ACSR-B-6X1']
New Line.262294818 Bus1=262294815.1.2.3 Bus2=260117542.1.2.3 LineCode=1/0-AL-HMWPECN-25KV Phases= 3 Length=29.93  units=m enable=yes
New Line.264296787 Bus1=260873761.1     Bus2=264296785.1     LineCode=1/0-AL-TRXLPELCJ-25KV Phases= 1 Length=196.90 units=m enable=yes
New Line.384154140 Phases= 3 Bus1=384154136.1.2.3 Bus2=254455489.1.2.3 Length=437.00 units=m  Spacing=8'-ARM-NON-CENTER-POST-3PH wires=['4-ACSR-B-6X1' '4-ACSR-B-6X1' '4-ACSR-B-6X1' '2-ACSR-B-6X1']
New Line.264425935 Phases= 1 Bus1=264425932.2     Bus2=254449338.2     Length=146.10 units=m  Spacing=VERTICAL-1-PH-60-1PH wires=['4-ACSR-B-6X1' '4-ACSR-B-6X1']
New Line.254460266 Phases= 2 Bus1=254460263.2.3   Bus2=254460268.2.3   Length=41.95  units=m  Spacing=8'-ARM-STANDARD-2PH wires=['4-ACSR-B-6X1' '4-ACSR-B-6X1' '4-ACSR-B-6X1']
New Line.263903261 Phases= 1 Bus1=254448647.3     Bus2=263903263.3     Length=1.53   units=m  Spacing=VERTICAL-1-PH-104-1PH wires=['2-ACSR-B-6X1' '2-ACSR-B-6X1']
New Line.254449386 Phases= 1 Bus1=254449383.2     Bus2=254449388.2     Length=59.85  units=m  Spacing=VERTICAL-1-PH-60-1PH wires=['2-ACSR-B-6X1' '2-ACSR-B-6X1']
New Line.259199759 Phases= 3 Bus1=259199760.1.2.3 Bus2=254444588.1.2.3 Length=37.61  units=m  Spacing=8'-ARM-NON-CENTER-POST-3PH wires=['336-ACSR-B-18X1' '336-ACSR-B-18X1' '336-ACSR-B-18X1' '1/0-ACSR-B-6X1']
New Line.254448918 Phases= 3 Bus1=254448915.1.2.3 Bus2=254448920.1.2.3 Length=47.82  units=m  Spacing=8'-ARM-NON-CENTER-POST-3PH wires=['336-ACSR-B-18X1' '336-ACSR-B-18X1' '336-ACSR-B-18X1' '1/0-ACSR-B-6X1']
New Line.262294683 Phases= 1 Bus1=262294680.1     Bus2=254448445.1     Length=35.61  units=m  Spacing=VERTICAL-1-PH-60-1PH wires=['4-ACSR-B-6X1' '4-ACSR-B-6X1']
New Line.262298155 Phases= 1 Bus1=262298152.2     Bus2=254460433.2     Length=205.10 units=m  Spacing=VERTICAL-1-PH-60-1PH wires=['2-ACSR-B-6X1' '2-ACSR-B-6X1']
New Line.254466402 Phases= 3 Bus1=254466386.1.2.3 Bus2=254466404.1.2.3 Length=65.93  units=m  Spacing=8'-ARM-NON-CENTER-POST-3PH wires=['2-ACSR-B-6X1' '2-ACSR-B-6X1' '2-ACSR-B-6X1' '2-ACSR-B-6X1']
New Line.254461025 Phases= 1 Bus1=254461022.3     Bus2=254461027.3     Length=104.30 units=m  Spacing=VERTICAL-1-PH-60-1PH wires=['2-ACSR-B-6X1' '2-ACSR-B-6X1']
New Line.262298042 Bus1=254459879.3     Bus2=262298044.3     LineCode=1/0-AL-HMWPECN-25KV Phases= 1 Length=1.52   units=m enable=yes
New Line.254454473 Phases= 3 Bus1=254454470.1.2.3 Bus2=254454475.1.2.3 Length=71.90  units=m  Spacing=8'-ARM-NON-CENTER-POST-3PH wires=['2-ACSR-B-6X1' '2-ACSR-B-6X1' '1/0-ACSR-B-6X1' '2-ACSR-B-6X1']
New Line.254460132 Phases= 2 Bus1=254460124.2.3   Bus2=254460134.2.3   Length=31.46  units=m  Spacing=8'-ARM-STANDARD-2PH wires=['4-ACSR-B-6X1' '4-ACSR-B-6X1' '4-ACSR-B-6X1']
New Line.262298204 Phases= 1 Bus1=254460670.2     Bus2=262298206.2     Length=1.51   units=m  Spacing=VERTICAL-1-PH-60-1PH wires=['4-ACSR-B-6X1' '4-ACSR-B-6X1']
New Line.262296354 Phases= 1 Bus1=262296351.2     Bus2=254455010.2     Length=66.09  units=m  Spacing=VERTICAL-1-PH-60-1PH wires=['2-ACSR-B-6X1' '2-ACSR-B-6X1']
New Line.254459987 Phases= 1 Bus1=254459984.3     Bus2=254459989.3     Length=25.57  units=m  Spacing=VERTICAL-1-PH-60-1PH wires=['4-ACSR-B-6X1' '4-ACSR-B-6X1']
New Line.254459770 Phases= 2 Bus1=254459757.1.3   Bus2=254459772.1.3   Length=50.81  units=m  Spacing=8'-ARM-STANDARD-2PH wires=['4-ACSR-B-6X1' '4-ACSR-B-6X1' '4-ACSR-B-6X1']
New Line.259172904 Phases= 3 Bus1=254454599.1.2.3 Bus2=254454603.1.2.3 Length=26.23  units=m  Spacing=8'-ARM-NON-CENTER-POST-3PH wires=['2-ACSR-B-6X1' '2-ACSR-B-6X1' '1/0-ACSR-B-6X1' '2-ACSR-B-6X1']
New Line.254449563 Phases= 1 Bus1=254449555.3     Bus2=254449565.3     Length=103.60 units=m  Spacing=VERTICAL-1-PH-60-1PH wires=['2-ACSR-B-6X1' '2-ACSR-B-6X1']
New Line.254460673 Phases= 3 Bus1=254460670.1.2.3 Bus2=254460675.1.2.3 Length=52.41  units=m  Spacing=8'-ARM-STANDARD-3PH wires=['336-ACSR-B-18X1' '336-ACSR-B-18X1' '336-ACSR-B-18X1' '336-ACSR-B-18X1']
New Line.254455033 Phases= 1 Bus1=254455025.2     Bus2=254455035.2     Length=109.50 units=m  Spacing=VERTICAL-1-PH-60-1PH wires=['4-ACSR-B-6X1' '4-ACSR-B-6X1']
New Line.264426043 Phases= 3 Bus1=264426040.1.2.3 Bus2=254455359.1.2.3 Length=42.42  units=m  Spacing=8'-ARM-NON-CENTER-POST-3PH wires=['4-ACSR-B-6X1' '4-ACSR-B-6X1' '4-ACSR-B-6X1' '2-ACSR-B-6X1']
New Line.254455168 Phases= 1 Bus1=254455165.2     Bus2=254455170.2     Length=115.00 units=m  Spacing=VERTICAL-1-PH-60-1PH wires=['4-ACSR-B-6X1' '4-ACSR-B-6X1']
New Line.254449381 Phases= 1 Bus1=254449378.2     Bus2=254449383.2     Length=57.47  units=m  Spacing=VERTICAL-1-PH-60-1PH wires=['2-ACSR-B-6X1' '2-ACSR-B-6X1']
New Line.254448794 Phases= 3 Bus1=254448751.1.2.3 Bus2=254448796.1.2.3 Length=23.78  units=m  Spacing=8'-ARM-NON-CENTER-POST-3PH wires=['336-ACSR-B-18X1' '336-ACSR-B-18X1' '336-ACSR-B-18X1' '1/0-ACSR-B-6X1']
New Line.254432443 Phases= 3 Bus1=254432440.1.2.3 Bus2=254432445.1.2.3 Length=80.90  units=m  Spacing=8'-ARM-NON-CENTER-POST-3PH wires=['336-AAC-B-19' '336-AAC-B-19' '336-AAC-B-19' '336-AAC-B-19']
New Line.254455427 Phases= 1 Bus1=254455424.1     Bus2=254455429.1     Length=70.10  units=m  Spacing=VERTICAL-1-PH-60-1PH wires=['1/0-ACSR-B-6X1' '2-ACSR-B-6X1']
New Line.254448508 Phases= 1 Bus1=254448505.2     Bus2=254448510.2     Length=52.13  units=m  Spacing=VERTICAL-1-PH-60-1PH wires=['4-ACSR-B-6X1' '4-ACSR-B-6X1']
New Line.254449538 Phases= 1 Bus1=254449535.3     Bus2=254449540.3     Length=129.30 units=m  Spacing=VERTICAL-1-PH-60-1PH wires=['2-ACSR-B-6X1' '2-ACSR-B-6X1']
New Line.262296448 Phases= 1 Bus1=254455364.3     Bus2=262296450.3     Length=1.52   units=m  Spacing=VERTICAL-1-PH-60-1PH wires=['2-ACSR-B-6X1' '2-ACSR-B-6X1']
New Line.254455649 Phases= 1 Bus1=254455646.1     Bus2=254455651.1     Length=30.99  units=m  Spacing=VERTICAL-1-PH-60-1PH wires=['2-ACSR-B-6X1' '2-ACSR-B-6X1']
New Line.254454866 Phases= 3 Bus1=254454863.1.2.3 Bus2=254454868.1.2.3 Length=78.14  units=m  Spacing=8'-ARM-NON-CENTER-POST-3PH wires=['1/0-ACSR-B-6X1' '1/0-ACSR-B-6X1' '1/0-ACSR-B-6X1' '1/0-ACSR-B-6X1']
New Line.254461050 Phases= 3 Bus1=254460664.1.2.3 Bus2=254461051.1.2.3 Length=82.08  units=m  Spacing=8'-ARM-STANDARD-3PH wires=['2-ACSR-B-6X1' '2-ACSR-B-6X1' '2-ACSR-B-6X1' '2-ACSR-B-6X1']
New Line.254460137 Phases= 2 Bus1=254460134.2.3   Bus2=254460139.2.3   Length=68.78  units=m  Spacing=8'-ARM-STANDARD-2PH wires=['4-ACSR-B-6X1' '4-ACSR-B-6X1' '4-ACSR-B-6X1']
New Line.254455639 Phases= 1 Bus1=254455636.1     Bus2=254455641.1     Length=124.80 units=m  Spacing=VERTICAL-1-PH-60-1PH wires=['2-ACSR-B-6X1' '2-ACSR-B-6X1']
New Line.254448889 Phases= 3 Bus1=254448886.1.2.3 Bus2=254448891.1.2.3 Length=77.19  units=m  Spacing=8'-ARM-NON-CENTER-POST-3PH wires=['336-ACSR-B-18X1' '336-ACSR-B-18X1' '336-ACSR-B-18X1' '1/0-ACSR-B-6X1']
New Line.254455073 Phases= 1 Bus1=254455050.2     Bus2=254455075.2     Length=88.78  units=m  Spacing=VERTICAL-1-PH-60-1PH wires=['4-ACSR-B-6X1' '4-ACSR-B-6X1']
New Line.263916337 Bus1=263916334.1.2.3 Bus2=261193271.1.2.3 LineCode=1/0-AL-TRXLPELCJ-25KV Phases= 3 Length=90.17  units=m enable=yes
New Line.254448269 Phases= 3 Bus1=254448266.1.2.3 Bus2=254448271.1.2.3 Length=24.31  units=m  Spacing=8'-ARM-NON-CENTER-POST-3PH wires=['4-ACSR-B-6X1' '4-ACSR-B-6X1' '4-ACSR-B-6X1' '4-ACSR-B-6X1']
New Line.254448844 Phases= 3 Bus1=254448841.1.2.3 Bus2=254448846.1.2.3 Length=78.85  units=m  Spacing=8'-ARM-NON-CENTER-POST-3PH wires=['336-ACSR-B-18X1' '336-ACSR-B-18X1' '336-ACSR-B-18X1' '1/0-ACSR-B-6X1']
New Line.254448573 Phases= 3 Bus1=254448565.1.2.3 Bus2=254448575.1.2.3 Length=53.69  units=m  Spacing=8'-ARM-NON-CENTER-POST-3PH wires=['336-ACSR-B-18X1' '336-ACSR-B-18X1' '336-ACSR-B-18X1' '1/0-ACSR-B-6X1']
New Line.254459835 Phases= 1 Bus1=254459822.3     Bus2=254459837.3     Length=126.70 units=m  Spacing=VERTICAL-1-PH-60-1PH wires=['2-ACSR-B-6X1' '2-ACSR-B-6X1']
New Line.254448463 Phases= 3 Bus1=254448460.1.2.3 Bus2=254448465.1.2.3 Length=50.99  units=m  Spacing=8'-ARM-NON-CENTER-POST-3PH wires=['336-ACSR-B-18X1' '336-ACSR-B-18X1' '336-ACSR-B-18X1' '1/0-ACSR-B-6X1']
New Line.262294827 Phases= 3 Bus1=262294824.1.2.3 Bus2=254448979.1.2.3 Length=97.38  units=m  Spacing=8'-ARM-NON-CENTER-POST-3PH wires=['2-ACSR-B-6X1' '2-ACSR-B-6X1' '2-ACSR-B-6X1' '2-ACSR-B-6X1']
New Line.263744496 Bus1=254454429.2     Bus2=263744498.2     LineCode=1/0-AL-TRXLPELCJ-25KV Phases= 1 Length=1.52   units=m enable=yes
New Line.262293549 Phases= 3 Bus1=262293546.1.2.3 Bus2=254444545.1.2.3 Length=93.24  units=m  Spacing=8'-ARM-NON-CENTER-POST-3PH wires=['2-ACSR-B-6X1' '2-ACSR-B-6X1' '2-ACSR-B-6X1' '2-ACSR-B-6X1']
New Line.254455609 Phases= 1 Bus1=254455601.1     Bus2=254455611.1     Length=18.95  units=m  Spacing=VERTICAL-1-PH-60-1PH wires=['2-ACSR-B-6X1' '2-ACSR-B-6X1']
New Line.262298141 Phases= 1 Bus1=254460403.2     Bus2=262298143.2     Length=1.52   units=m  Spacing=VERTICAL-1-PH-60-1PH wires=['4-ACSR-B-6X1' '4-ACSR-B-6X1']
New Line.620369306 Phases= 1 Bus1=254449640.3     Bus2=620369305.3     Length=81.26  units=m  Spacing=VERTICAL-1-PH-60-1PH wires=['2-ACSR-B-6X1' '2-ACSR-B-6X1']
New Line.254461045 Phases= 1 Bus1=254461046.1     Bus2=254461047.1     Length=69.85  units=m  Spacing=VERTICAL-1-PH-60-1PH wires=['2-ACSR-B-6X1' '2-ACSR-B-6X1']
New Line.262296363 Phases= 1 Bus1=262296360.2     Bus2=254455030.2     Length=33.99  units=m  Spacing=VERTICAL-1-PH-60-1PH wires=['2-ACSR-B-6X1' '2-ACSR-B-6X1']
New Line.262298222 Phases= 1 Bus1=254460697.3     Bus2=262298224.3     Length=1.52   units=m  Spacing=VERTICAL-1-PH-60-1PH wires=['4-ACSR-B-6X1' '4-ACSR-B-6X1']
New Line.254432537 Phases= 3 Bus1=254432538.1.2.3 Bus2=254432539.1.2.3 Length=91.00  units=m  Spacing=8'-ARM-NON-CENTER-POST-3PH wires=['1/0-ACSR-B-6X1' '1/0-ACSR-B-6X1' '1/0-ACSR-B-6X1' '1/0-ACSR-B-6X1']
New Line.262296277 Phases= 1 Bus1=254454768.2     Bus2=262296279.2     Length=1.53   units=m  Spacing=VERTICAL-1-PH-60-1PH wires=['2-ACSR-B-6X1' '2-ACSR-B-6X1']
New Line.254455452 Phases= 1 Bus1=254455449.3     Bus2=254455454.3     Length=101.60 units=m  Spacing=VERTICAL-1-PH-60-1PH wires=['1/0-ACSR-B-6X1' '1/0-ACSR-B-6X1']
New Line.633931710 Phases= 1 Bus1=254449428.1     Bus2=633931708.1     Length=45.71  units=m  Spacing=VERTICAL-1-PH-60-1PH wires=['2-ACSR-B-6X1' '2-ACSR-B-6X1']
New Line.254448672 Phases= 3 Bus1=254448667.1.2.3 Bus2=254448674.1.2.3 Length=153.10 units=m  Spacing=8'-ARM-NON-CENTER-POST-3PH wires=['336-ACSR-B-18X1' '336-ACSR-B-18X1' '336-ACSR-B-18X1' '1/0-ACSR-B-6X1']
New Line.254454896 Phases= 1 Bus1=254454893.2     Bus2=254454898.2     Length=69.27  units=m  Spacing=VERTICAL-1-PH-60-1PH wires=['2-ACSR-B-6X1' '2-ACSR-B-6X1']
New Line.254432947 Phases= 1 Bus1=254432944.3     Bus2=254432949.3     Length=62.60  units=m  Spacing=VERTICAL-1-PH-60-1PH wires=['2-ACSR-B-6X1' '2-ACSR-B-6X1']
New Line.263955841 Phases= 1 Bus1=263955838.1     Bus2=259473228.1     Length=25.82  units=m  Spacing=VERTICAL-1-PH-104-1PH wires=['1/0-ACSR-B-6X1' '1/0-ACSR-B-6X1']
New Line.467179822 Phases= 3 Bus1=467179820.1.2.3 Bus2=254449680.1.2.3 Length=25.40  units=m  Spacing=8'-ARM-NON-CENTER-POST-3PH wires=['1/0-ACSR-B-6X1' '1/0-ACSR-B-6X1' '2-ACSR-B-6X1' '2-ACSR-B-6X1']
New Line.254459952 Phases= 2 Bus1=254459924.2.3   Bus2=254459954.2.3   Length=26.40  units=m  Spacing=8'-ARM-STANDARD-2PH wires=['4-ACSR-B-6X1' '4-ACSR-B-6X1' '4-ACSR-B-6X1']
New Line.254455048 Phases= 1 Bus1=254455049.2     Bus2=254455050.2     Length=21.74  units=m  Spacing=VERTICAL-1-PH-60-1PH wires=['4-ACSR-B-6X1' '4-ACSR-B-6X1']
New Line.624540415 Phases= 3 Bus1=254432445.1.2.3 Bus2=624540413.1.2.3 Length=102.20 units=m  Spacing=8'-ARM-NON-CENTER-POST-3PH wires=['336-AAC-B-19' '336-AAC-B-19' '336-AAC-B-19' '336-AAC-B-19']
New Line.254459795 Phases= 2 Bus1=254459796.1.3   Bus2=254459797.1.3   Length=19.50  units=m  Spacing=8'-ARM-STANDARD-2PH wires=['4-ACSR-B-6X1' '4-ACSR-B-6X1' '4-ACSR-B-6X1']
New Line.254460526 Phases= 2 Bus1=254460468.2.3   Bus2=254460528.2.3   Length=82.42  units=m  Spacing=8'-ARM-STANDARD-2PH wires=['4-ACSR-B-6X1' '4-ACSR-B-6X1' '4-ACSR-B-6X1']
New Line.259091524 Phases= 2 Bus1=254455536.1.3   Bus2=254455540.1.3   Length=67.81  units=m  Spacing=8'-ARM-STANDARD-2PH wires=['4-ACSR-B-6X1' '4-ACSR-B-6X1' '4-ACSR-B-6X1']
New Line.254454968 Phases= 1 Bus1=254454965.2     Bus2=254454970.2     Length=86.18  units=m  Spacing=VERTICAL-1-PH-60-1PH wires=['4-ACSR-B-6X1' '4-ACSR-B-6X1']
New Line.264550406 Phases= 2 Bus1=254459732.1.3   Bus2=264550408.1.3   Length=1.52   units=m  Spacing=8'-ARM-STANDARD-2PH wires=['4-ACSR-B-6X1' '4-ACSR-B-6X1' '4-ACSR-B-6X1']
New Line.254454644 Phases= 1 Bus1=254454641.1     Bus2=254454646.1     Length=69.66  units=m  Spacing=VERTICAL-1-PH-60-1PH wires=['2-ACSR-B-6X1' '2-ACSR-B-6X1']
New Line.262294629 Phases= 1 Bus1=262294626.2     Bus2=254448286.2     Length=16.44  units=m  Spacing=VERTICAL-1-PH-60-1PH wires=['2-ACSR-B-6X1' '2-ACSR-B-6X1']
New Line.254448227 Phases= 3 Bus1=254448224.1.2.3 Bus2=254448229.1.2.3 Length=41.04  units=m  Spacing=8'-ARM-NON-CENTER-POST-3PH wires=['336-ACSR-B-18X1' '336-ACSR-B-18X1' '336-ACSR-B-18X1' '1/0-ACSR-B-6X1']
New Line.385539296 Phases= 3 Bus1=254454475.1.2.3 Bus2=385539295.1.2.3 Length=81.26  units=m  Spacing=8'-ARM-NON-CENTER-POST-3PH wires=['2-ACSR-B-6X1' '2-ACSR-B-6X1' '1/0-ACSR-B-6X1' '2-ACSR-B-6X1']
New Line.254432411 Phases= 3 Bus1=MOCKSVILLE_MN_03552402.1.2.3 Bus2=254432413.1.2.3 Length=9.58   units=m  Spacing=8'-ARM-NON-CENTER-POST-3PH wires=['336-AAC-B-19' '336-AAC-B-19' '336-AAC-B-19' '336-AAC-B-19']
New Line.698880563 Phases= 3 Bus1=698880560.1.2.3 Bus2=254466537.1.2.3 Length=32.03  units=m  Spacing=8'-ARM-NON-CENTER-POST-3PH wires=['2-ACSR-B-6X1' '2-ACSR-B-6X1' '2-ACSR-B-6X1' '2-ACSR-B-6X1']
New Line.262290655 Phases= 1 Bus1=254432919.3     Bus2=262290657.3     Length=1.52   units=m  Spacing=VERTICAL-1-PH-60-1PH wires=['2-ACSR-B-6X1' '2-ACSR-B-6X1']
New Line.262294791 Phases= 3 Bus1=262294788.1.2.3 Bus2=254448866.1.2.3 Length=54.55  units=m  Spacing=8'-ARM-NON-CENTER-POST-3PH wires=['1/0-ACSR-B-6X1' '1/0-ACSR-B-6X1' '1/0-ACSR-B-6X1' '1/0-ACSR-B-6X1']
New Line.262294836 Phases= 1 Bus1=262294833.1     Bus2=254449068.1     Length=131.50 units=m  Spacing=VERTICAL-1-PH-60-1PH wires=['2-ACSR-B-6X1' '2-ACSR-B-6X1']
New Line.254449441 Phases= 1 Bus1=254449442.1     Bus2=254449443.1     Length=31.52  units=m  Spacing=VERTICAL-1-PH-60-1PH wires=['4-ACSR-B-6X1' '4-ACSR-B-6X1']
New Line.264289522 Bus1=260119695.1.2.3 Bus2=264289524.1.2.3 LineCode=1/0-AL-HMWPECN-25KV Phases= 3 Length=1.52   units=m enable=yes
New Line.309735018 Bus1=260119690.1.2.3 Bus2=309735020.1.2.3 LineCode=1/0-AL-HMWPECN-25KV Phases= 3 Length=1.53   units=m enable=yes
New Line.260873754 Bus1=260873746.1     Bus2=260873756.1     LineCode=1/0-AL-TRXLPELCJ-25KV Phases= 1 Length=186.90 units=m enable=yes
New Line.264425948 Phases= 1 Bus1=254449525.3     Bus2=264425950.3     Length=1.53   units=m  Spacing=VERTICAL-1-PH-60-1PH wires=['2-ACSR-B-6X1' '2-ACSR-B-6X1']
New Line.254449086 Phases= 3 Bus1=254449083.1.2.3 Bus2=254449088.1.2.3 Length=23.71  units=m  Spacing=8'-ARM-NON-CENTER-POST-3PH wires=['336-ACSR-B-18X1' '336-ACSR-B-18X1' '336-ACSR-B-18X1' '1/0-ACSR-B-6X1']
New Line.254432957 Phases= 1 Bus1=254432954.3     Bus2=254432959.3     Length=64.00  units=m  Spacing=VERTICAL-1-PH-60-1PH wires=['2-ACSR-B-6X1' '2-ACSR-B-6X1']
New Line.254432625 Phases= 3 Bus1=254432622.1.2.3 Bus2=254432627.1.2.3 Length=101.90 units=m  Spacing=8'-ARM-NON-CENTER-POST-3PH wires=['2-CU-B-7' '2-CU-B-7' '2-CU-B-7' '2-CU-B-7']
New Line.262294782 Phases= 1 Bus1=262294779.1     Bus2=254448831.1     Length=43.07  units=m  Spacing=VERTICAL-1-PH-60-1PH wires=['1/0-ACSR-B-6X1' '2-ACSR-B-6X1']
New Line.251376007 Phases= 3 Bus1=251376003.1.2.3 Bus2=254432785.1.2.3 Length=102.10 units=m  Spacing=8'-ARM-NON-CENTER-POST-3PH wires=['336-AAC-B-19' '336-AAC-B-19' '336-AAC-B-19' '1/0-ACSR-B-6X1']
New Line.254449259 Phases= 1 Bus1=254449256.1     Bus2=254449261.1     Length=44.74  units=m  Spacing=VERTICAL-1-PH-60-1PH wires=['2-ACSR-B-6X1' '2-ACSR-B-6X1']
New Line.254460147 Phases= 2 Bus1=254460139.2.3   Bus2=254460149.2.3   Length=72.39  units=m  Spacing=8'-ARM-STANDARD-2PH wires=['4-ACSR-B-6X1' '4-ACSR-B-6X1' '4-ACSR-B-6X1']
New Line.254460184 Phases= 1 Bus1=254460176.3     Bus2=254460186.3     Length=33.99  units=m  Spacing=VERTICAL-1-PH-60-1PH wires=['2-ACSR-B-6X1' '2-ACSR-B-6X1']
New Line.254448523 Phases= 1 Bus1=254448520.2     Bus2=254448525.2     Length=63.46  units=m  Spacing=VERTICAL-1-PH-60-1PH wires=['4-ACSR-B-6X1' '4-ACSR-B-6X1']
New Line.254432716 Phases= 3 Bus1=254432708.1.2.3 Bus2=254432718.1.2.3 Length=4.20   units=m  Spacing=8'-ARM-NON-CENTER-POST-3PH wires=['1/0-ACSR-B-6X1' '1/0-ACSR-B-6X1' '1/0-ACSR-B-6X1' '2-ACSR-B-6X1']
New Line.254454555 Phases= 3 Bus1=254454542.1.2.3 Bus2=254454557.1.2.3 Length=74.65  units=m  Spacing=8'-ARM-NON-CENTER-POST-3PH wires=['2-ACSR-B-6X1' '2-ACSR-B-6X1' '1/0-ACSR-B-6X1' '2-ACSR-B-6X1']
New Line.254460376 Phases= 2 Bus1=254460373.2.3   Bus2=254460378.2.3   Length=77.79  units=m  Spacing=8'-ARM-STANDARD-2PH wires=['4-ACSR-B-6X1' '4-ACSR-B-6X1' '4-ACSR-B-6X1']
New Line.262294795 Phases= 1 Bus1=254448861.3     Bus2=262294797.3     Length=1.52   units=m  Spacing=VERTICAL-1-PH-60-1PH wires=['2-ACSR-B-6X1' '2-ACSR-B-6X1']
New Line.292080332 Phases= 1 Bus1=254432949.3     Bus2=292080330.3     Length=56.91  units=m  Spacing=VERTICAL-1-PH-60-1PH wires=['2-ACSR-B-6X1' '2-ACSR-B-6X1']
New Line.262298240 Phases= 1 Bus1=254460712.3     Bus2=262298242.3     Length=1.52   units=m  Spacing=VERTICAL-1-PH-60-1PH wires=['2-ACSR-B-6X1' '2-ACSR-B-6X1']
New Line.254448849 Phases= 3 Bus1=254448846.1.2.3 Bus2=254448851.1.2.3 Length=51.43  units=m  Spacing=8'-ARM-NON-CENTER-POST-3PH wires=['336-ACSR-B-18X1' '336-ACSR-B-18X1' '336-ACSR-B-18X1' '1/0-ACSR-B-6X1']
New Line.254454393 Phases= 1 Bus1=254454390.2     Bus2=254454395.2     Length=119.30 units=m  Spacing=VERTICAL-1-PH-60-1PH wires=['2-ACSR-B-6X1' '2-ACSR-B-6X1']
New Line.254448854 Phases= 3 Bus1=254448851.1.2.3 Bus2=254448856.1.2.3 Length=70.20  units=m  Spacing=8'-ARM-NON-CENTER-POST-3PH wires=['336-ACSR-B-18X1' '336-ACSR-B-18X1' '336-ACSR-B-18X1' '1/0-ACSR-B-6X1']
New Line.464595764 Phases= 3 Bus1=464595759.1.2.3 Bus2=469543344.1.2.3 Length=275.00 units=m  Spacing=8'-ARM-NON-CENTER-POST-3PH wires=['1/0-ACSR-B-6X1' '1/0-ACSR-B-6X1' '1/0-ACSR-B-6X1' '1/0-ACSR-B-6X1']
New Line.254454906 Phases= 2 Bus1=254454903.2.3   Bus2=254454908.2.3   Length=80.23  units=m  Spacing=8'-ARM-STANDARD-2PH wires=['4-ACSR-B-6X1' '4-ACSR-B-6X1' '4-ACSR-B-6X1']
New Line.254448610 Phases= 3 Bus1=254448602.1.2.3 Bus2=254448612.1.2.3 Length=38.38  units=m  Spacing=8'-ARM-NON-CENTER-POST-3PH wires=['336-ACSR-B-18X1' '336-ACSR-B-18X1' '336-ACSR-B-18X1' '1/0-ACSR-B-6X1']
New Line.254432741 Phases= 3 Bus1=254432738.1.2.3 Bus2=254432743.1.2.3 Length=93.64  units=m  Spacing=8'-ARM-NON-CENTER-POST-3PH wires=['1/0-ACSR-B-6X1' '1/0-ACSR-B-6X1' '1/0-ACSR-B-6X1' '2-ACSR-B-6X1']
New Line.262296205 Phases= 1 Bus1=254454490.1     Bus2=262296207.1     Length=1.53   units=m  Spacing=VERTICAL-1-PH-60-1PH wires=['2-ACSR-B-6X1' '1/0-ACSR-B-6X1']
New Line.264361078 Phases= 3 Bus1=264361075.1.2.3 Bus2=254448133.1.2.3 Length=512.30 units=m  Spacing=8'-ARM-NON-CENTER-POST-3PH wires=['336-ACSR-B-18X1' '336-ACSR-B-18X1' '336-ACSR-B-18X1' '1/0-ACSR-B-6X1']
New Line.254432890 Phases= 3 Bus1=254432887.1.2.3 Bus2=254432892.1.2.3 Length=112.90 units=m  Spacing=8'-ARM-NON-CENTER-POST-3PH wires=['1/0-ACSR-B-6X1' '1/0-ACSR-B-6X1' '1/0-ACSR-B-6X1' '1/0-ACSR-B-6X1']
New Line.408867713 Phases= 3 Bus1=408867711.1.2.3 Bus2=254448592.1.2.3 Length=47.67  units=m  Spacing=8'-ARM-NON-CENTER-POST-3PH wires=['336-ACSR-B-18X1' '336-ACSR-B-18X1' '336-ACSR-B-18X1' '1/0-ACSR-B-6X1']
New Line.254444567 Phases= 3 Bus1=254444557.1.2.3 Bus2=254444569.1.2.3 Length=119.40 units=m  Spacing=8'-ARM-NON-CENTER-POST-3PH wires=['336-ACSR-B-18X1' '336-ACSR-B-18X1' '336-ACSR-B-18X1' '1/0-ACSR-B-6X1']
New Line.254448346 Phases= 3 Bus1=254448343.1.2.3 Bus2=254448348.1.2.3 Length=114.40 units=m  Spacing=8'-ARM-NON-CENTER-POST-3PH wires=['336-ACSR-B-18X1' '336-ACSR-B-18X1' '336-ACSR-B-18X1' '1/0-ACSR-B-6X1']