New loadshape.LS_PhaseA npts=1440 sinterval=60 pmult=(1072.766235 1065.803068 1056.641216 1045.640804 1033.217829 1019.827397 1005.945790 992.051999 978.609396 966.048175 954.749207 946.711226 940.349704 935.689082 932.683640 931.223760 931.144377 932.235254 934.252631 936.931796 940.000061 941.784196 943.564096 945.228824 946.689060 947.878212 948.752566 949.290542 949.491138 949.371684 948.965027 948.356318 947.551332 946.606906 945.582559 944.537072 943.525291 942.595265 941.785821 941.124694 940.627258 940.837463 941.160440 941.529680 941.873644 942.120653 942.203909 942.066432 941.665681 940.977624 940.000061 937.056954 934.035905 931.146195 928.602692 926.614742 925.375101 925.049364 925.766340 927.609786 930.611877 936.637769 943.556710 951.077524 958.875122 966.605406 973.921127 980.488096 986.001091 990.198852 992.877563 991.742042 989.082435 985.096774 980.044286 974.233790 968.010277 961.740185 955.795921 950.540164 946.310547 944.120105 943.431016 944.370110 947.001195 951.322205 957.264576 964.694862 973.418547 983.185941 993.700012 1005.211791 1016.731547 1027.834218 1038.098143 1047.121437 1054.537974 1060.032384 1063.353556 1064.326124 1062.859497 1056.840458 1048.654871 1038.660206 1027.280475 1014.988486 1002.286467 989.685782 977.686459 966.757280 957.317139 951.355617 947.362610 945.388208 945.402348 947.299032 950.903140 955.979547 962.244177 969.376572 977.033508 983.958590 990.794131 997.284143 1003.193677 1008.316052 1012.479125 1015.550436 1017.441106 1018.108372 1017.556702 1015.349423 1012.109576 1008.015249 1003.276950 998.129382 992.822527 987.612340 982.751378 978.479638 975.015930 972.821586 971.753726 971.903863 973.321558 976.013197 979.942186 985.030525 991.161705 998.184815 1005.919739 1014.083383 1022.546614 1031.086528 1039.477384 1047.497972 1054.938886 1061.609480 1067.344277 1072.008626 1075.503418 1077.165293 1077.631083 1076.972947 1075.298288 1072.744937 1069.475414 1065.670470 1061.522122 1057.226405 1052.976074 1048.445380 1044.344789 1040.858232 1038.136294 1036.289098 1035.380626 1035.424706 1036.382873 1038.164218 1040.627319 1045.349302 1050.194436 1054.759002 1058.635028 1061.430453 1062.789087 1062.409593 1060.062702 1055.605964 1048.995361 1036.545843 1022.491971 1007.416139 991.963465 976.813079 962.647920 950.124201 939.841721 932.316170 927.954529 931.029322 937.336344 946.535129 958.172025 971.702674 986.517778 1001.971104 1017.408637 1032.197751 1045.755249 1053.781693 1059.988415 1064.383109 1067.059636 1068.187497 1067.998574 1066.771740 1064.816054 1062.453229 1060.000122 1059.874396 1060.023643 1060.487964 1061.271569 1062.345428 1063.651483 1065.108194 1066.617125 1068.070254 1069.357666 1069.083944 1068.564579 1067.830700 1066.923823 1065.894103 1064.798227 1063.697019 1062.652885 1061.727187 1060.977661 1060.427474 1060.147700 1060.174676 1060.533369 1061.236114 1062.281853 1063.655887 1065.330192 1067.264282 1069.406616 1071.969029 1074.590522 1077.177406 1079.637797 1081.886317 1083.848703 1085.466129 1086.699060 1087.530469 1087.968262 1086.980392 1085.784212 1084.552614 1083.471085 1082.729411 1082.513115 1082.994960 1084.326822 1086.632252 1090.000000 1095.114898 1101.289584 1108.432407 1116.412610 1125.064717 1134.194169 1143.584006 1153.002367 1162.210562 1170.971436 1178.577400 1185.344307 1191.126029 1195.802769 1199.284512 1201.513678 1202.466872 1202.155706 1200.626638 1197.959839 1193.490987 1188.198783 1182.311123 1176.067776 1169.711042 1163.476461 1157.583901 1152.229332 1147.577603 1143.756470 1142.026774 1141.157986 1141.051973 1141.578736 1142.584934 1143.903259 1145.362248 1146.796117 1148.054209 1149.009644 1147.428581 1145.571963 1143.593802 1141.667693 1139.976107 1138.699156 1138.003327 1138.030689 1138.889037 1140.643433 1145.290637 1150.642116 1156.445411 1162.414882 1168.244677 1173.622770 1178.245481 1181.831926 1184.137812 1184.968018 1181.761825 1177.086277 1171.143055 1164.184054 1156.499288 1148.403520 1140.222141 1132.276869 1124.871826 1118.280518 1114.405199 1111.608927 1109.878922 1109.157474 1109.348078 1110.323087 1111.932534 1114.013735 1116.401267 1118.936890 1120.111336 1121.297199 1122.518782 1123.822495 1125.274120 1126.955177 1128.958561 1131.383618 1134.330855 1137.896484 1141.860276 1146.620182 1152.254082 1158.813591 1166.318916 1174.754774 1184.067573 1194.164016 1204.911238 1216.138550 1228.740296 1241.293134 1253.450457 1264.862018 1275.188472 1284.115976 1291.370299 1296.729905 1300.037487 1301.209473 1298.125524 1293.166156 1286.668958 1279.031779 1270.696836 1262.133268 1253.818765 1246.220927 1239.778992 1234.886597 1232.877429 1232.915801 1235.095554 1239.429713 1245.850871 1254.214225 1264.303151 1275.837119 1288.481683 1301.860229 1315.654774 1329.357717 1342.539393 1354.784298 1365.706154 1374.962167 1382.266001 1387.399038 1390.219492 1390.669067 1386.871807 1381.008518 1373.435939 1364.570994 1354.872968 1344.824331 1334.910923 1325.602215 1317.332352 1310.482666 1307.090684 1305.514208 1305.757913 1307.749831 1311.347523 1316.346708 1322.491970 1329.489109 1337.018653 1344.750000 1350.960808 1356.860262 1362.277736 1367.067236 1371.110298 1374.317878 1376.631255 1378.021965 1378.490830 1378.066162 1376.533046 1374.252411 1371.340062 1367.923728 1364.137295 1360.115110 1355.986556 1351.871103 1347.874020 1344.082886 1341.347739 1338.867880 1336.603498 1334.501590 1332.501680 1330.541952 1328.565481 1326.526284 1324.394880 1322.163086 1317.859588 1313.684485 1309.870125 1306.654902 1304.271150 1302.932978 1302.824547 1304.089272 1306.820432 1311.053589 1318.887491 1327.923116 1337.830388 1348.239241 1358.755682 1368.978900 1378.518742 1387.012892 1394.143060 1399.649536 1400.253537 1399.199566 1396.712956 1393.073849 1388.600835 1383.633256 1378.512897 1373.565844 1369.085243 1365.315674 1365.386054 1366.209418 1367.581187 1369.247008 1370.917878 1372.286881 1373.046809 1372.907914 1371.615018 1368.963257 1361.199093 1352.177974 1342.204825 1331.630264 1320.832664 1310.199037 1300.105508 1290.898224 1282.875485 1276.271851 1274.601738 1274.293095 1275.055428 1276.540970 1278.363675 1280.119866 1281.409695 1281.858511 1281.137244 1278.980957 1271.445080 1262.520078 1252.514468 1241.799235 1230.788605 1219.919004 1209.627059 1200.327535 1192.392097 1186.129761 1184.584254 1184.832826 1186.683805 1189.868643 1194.054695 1198.860496 1203.872887 1208.665338 1212.816757 1215.930054 1215.611607 1213.783702 1210.380673 1205.394758 1198.873874 1190.917526 1181.671062 1171.318515 1160.074315 1148.174194 1135.828395 1123.319431 1110.893775 1098.782018 1087.190198 1076.292147 1066.223141 1057.075051 1048.893202 1041.675049 1036.767995 1032.568979 1028.829506 1025.281203 1021.650683 1017.674717 1013.115067 1007.772382 1001.498561 994.207031 982.575360 970.243149 957.607403 945.101974 933.175485 922.268423 912.790336 905.098077 899.476002 896.118958 899.037458 903.960851 910.438514 917.947337 925.916958 933.757019 940.885343 946.755894 950.885412 952.877625 947.842794 940.612581 931.525125 921.007469 909.552352 897.692514 885.973588 874.926664 865.041659 856.742554 854.116109 853.317598 854.159444 856.369475 859.606792 863.480428 867.569997 871.447486 874.699285 876.947571 874.931593 871.599520 867.022732 861.336418 854.731686 847.445570 839.749356 831.935722 824.305185 817.152405 811.904539 807.549000 804.196414 801.919411 800.750981 800.684229 801.673520 803.636939 806.459932 810.000000 813.772707 817.948159 822.360386 826.836540 831.202330 835.287522 838.931327 841.987534 844.329214 845.852844 845.930144 845.112042 843.426530 840.927250 837.690403 833.811064 829.399061 824.574556 819.463488 814.193054 809.319407 804.490994 799.779550 795.247946 790.949991 786.930613 783.226340 779.866021 776.871714 774.259644 770.981665 768.193199 765.983309 764.426570 763.577951 763.468219 764.100108 765.445442 767.443402 770.000061 774.509138 779.169521 783.676915 787.722664 791.007940 793.257886 794.235155 793.752306 791.682532 787.968262 779.988496 770.700763 760.491107 749.791575 739.060567 728.762124 719.344928 711.221853 704.750826 700.217773 700.360964 702.525555 706.507281 712.023573 718.727600 726.224707 734.090582 741.890456 749.198611 755.617432 758.869263 760.762281 761.234602 760.287537 757.983347 754.440857 749.829151 744.359605 738.276560 731.846985 725.320954 718.999903 713.156238 708.041959 703.878408 700.847110 699.082027 698.663511 699.614181 701.896912 706.832216 712.734430 719.282815 726.126064 732.898344 739.235964 744.794057 749.262615 752.381246 753.952087 751.332809 747.211262 741.829547 735.487482 728.527407 721.317387 714.233476 707.641754 701.880815 697.245422 696.023013 696.149557 697.548051 700.079382 703.549976 707.721500 712.322194 717.059388 721.632714 725.747498 727.724727 728.847911 729.024847 728.197763 726.343680 723.473597 719.630598 714.886992 709.340606 703.110413 696.574120 689.611602 682.356255 674.945156 667.515093 660.198737 653.121072 646.396181 640.124446 634.390259 629.362203 624.979135 621.260837 618.208565 615.806236 614.022110 612.810875 612.116045 611.872575 612.009583 611.789080 611.856619 612.192827 612.775012 613.575610 614.560740 615.688969 616.910387 618.166089 619.388123 621.290671 622.933655 624.163598 624.831988 624.802041 623.955335 622.198036 619.466453 615.731693 611.003174 603.843545 595.956486 587.592620 579.023893 570.531995 562.396395 554.882447 548.230013 542.643044 538.280518 536.767143 536.504580 537.359939 539.156163 541.681485 544.700167 547.964082 551.224691 554.244940 556.810608 557.116932 556.789609 555.868169 554.427823 552.574218 550.437078 548.162986 545.907624 543.827807 542.073608 541.885504 542.178066 542.951780 544.188700 545.854793 547.902913 550.276241 552.912017 555.745372 558.713074 560.441552 562.307813 564.377629 566.714283 569.372869 572.394746 575.802439 579.595220 583.745611 588.197021 594.384918 600.543189 606.405176 611.696448 616.147323 619.505588 621.548891 622.096319 621.018683 618.247070 611.579995 603.471783 594.238612 584.242279 573.874673 563.541138 553.643326 544.562219 536.641930 530.174927 527.399754 526.285607 526.743473 528.621014 531.711779 535.766319 540.504734 545.630156 550.842628 555.852844 558.754840 561.103303 562.844121 563.958033 564.458435 564.387951 563.813944 562.823197 561.516015 560.000000 558.968958 557.887163 556.801660 555.751097 554.764415 553.860054 553.045693 552.318499 551.665873 551.066650 550.437770 549.808200 549.145605 548.416000 547.585933 546.624703 545.506518 544.212517 542.732551 541.066650 538.589091 536.013096 533.424954 530.915530 528.576073 526.493992 524.748757 523.408106 522.524695 522.133362 523.014319 524.332227 525.998318 527.911549 529.964017 532.046669 534.055071 535.895007 537.487653 538.774109 538.401752 537.790007 537.063069 536.358410 535.819042 535.585500 535.787863 536.538154 537.923451 540.000000 544.212208 548.998081 554.186035 559.580812 564.972792 570.147983 574.898294 579.031669 582.381667 584.816101 584.531960 583.345155 581.399897 578.873590 575.967712 572.897782 569.882814 567.134670 564.847748 563.189392 563.451604 564.461511 566.168686 568.485258 571.290488 574.436621 577.755777 581.067617 584.187490 586.934753 588.623162 589.671210 589.997618 589.547483 588.294666 586.243240 583.427936 579.913568 575.793440 571.186768 565.271237 559.246409 553.363272 547.870167 543.001645 538.967741 535.944111 534.063416 533.408321 534.006409 537.949545 542.850676 548.393577 554.232912 560.011758 565.379728 570.010947 573.621163 575.983273 576.940613 573.120827 568.111904 562.281158 556.049786 549.871665 544.210709 539.517674 536.207362 534.637119 535.087524 540.853086 548.640093 558.168860 569.077603 580.939153 593.280213 605.602408 617.404315 628.203623 637.558594 642.713072 645.948505 647.242570 646.648793 644.291937 640.361002 635.100128 628.797789 621.774696 614.370850 607.606630 601.081323 595.061437 589.790583 585.482236 582.313597 580.420700 579.894892 580.780783 583.075684 586.966138 592.106707 598.344741 605.494643 613.345284 621.668178 630.226117 638.781994 647.107485 654.991333 661.449159 667.192172 672.165174 676.344538 679.736761 682.376052 684.321073 685.650970 686.460888 686.857117 687.232926 687.394443 687.429693 687.422148 687.448090 687.574353 687.856507 688.337498 689.046790 690.000000 691.051912 692.351938 693.888259 695.636528 697.560883 699.615348 701.745564 703.890802 705.986191 707.965088 709.565964 710.938468 712.040689 712.836060 713.294313 713.392301 713.114660 712.454298 711.412702 710.000061 708.196450 706.071104 703.662252 701.014987 698.180272 695.213810 692.174808 689.124664 686.125587 683.239197 680.203474 677.422617 674.974037 672.925665 671.333122 670.237257 669.662134 669.613560 670.078227 671.023499 672.696036 674.704015 676.938393 679.279972 681.603975 683.784872 685.701317 687.241004 688.305273 688.813293 688.113465 686.814153 684.953845 682.591758 679.805032 676.685390 673.335368 669.864268 666.383972 663.004761 659.943773 657.172461 654.764739 652.780482 651.263795 650.241832 649.724217 649.703053 650.153531 651.035095 652.270347 653.819114 655.607000 657.552600 659.570511 661.574494 663.480671 665.210675 666.694615 667.873779 668.282902 668.348001 668.089500 667.540537 666.744986 665.755166 664.629329 663.429021 662.216422 661.051758 660.117769 659.325258 658.705132 658.279965 658.063563 658.060882 658.268291 658.674144 659.259653 660.000000 660.635180 661.383245 662.227872 663.149828 664.127349 665.136619 666.152333 667.148332 668.098300 668.976501 669.701425 670.313036 670.796379 671.139329 671.332932 671.371693 671.253798 670.981274 670.560062 670.000000 668.875600 667.678853 666.465582 665.289666 664.200230 663.239049 662.438304 661.818772 661.388552 661.142395 661.900298 662.724267 663.503796 664.127876 664.491867 664.504253 664.092981 663.211105 661.841438 660.000000 655.668864 651.176132 646.809336 642.864751 639.632228 637.380021 636.340213 636.695381 638.567040 642.006409 649.816025 658.824188 668.618512 678.741429 688.711422 698.045411 706.281421 713.000626 717.847892 720.549988 717.356676 712.079413 705.050965 696.681330 687.437317 677.820000 668.340949 659.498183 651.752782 645.507080 644.134913 644.552394 646.640485 650.201013 654.968740 660.625975 666.819073 673.176148 679.325289 684.912537 687.344323 688.827291 689.336476 688.894031 687.565219 685.452775 682.689886 679.432135 675.848740 672.113464 669.189558 666.365762 663.715025 661.292285 659.132727 657.250903 655.640698 654.276142 653.113016 652.091187 651.061064 650.026293 648.904168 647.609197 646.057085 644.168767 641.874364 639.116899 635.855644 632.068970 627.198978 621.873223 616.182311 610.233949 604.149137 598.057908 592.094797 586.394174 581.085619 576.289490 572.460652 569.311230 566.883733 565.202434 564.273551 564.085982 564.612520 565.811498 567.628779 570.000000 572.321271 575.092482 578.275620 581.826063 585.692067 589.814420 594.126304 598.553417 603.014407 607.421631 612.024351 616.355356 620.288800 623.702869 626.483939 628.530674 629.757960 630.100489 629.515887 627.987244 624.919285 621.008297 616.369635 611.139383 605.469611 599.523189 593.468332 587.473063 581.699764 576.299988 571.637600 567.580257 564.203074 561.558101 559.673674 558.554526 558.182625 558.518699 559.504379 561.064880 563.053152 565.437653 568.118505 570.992402 573.956153 576.910128 579.761536 582.427402 584.837159 586.934753 588.111991 588.961175 589.522362 589.846363 589.990816 590.016069 589.981028 589.939163 589.934827 590.000061 590.615463 591.277810 591.932903 592.513999 592.944900 593.143558 593.026090 592.511018 591.523600 590.000061 587.494127 584.409110 580.767368 576.610173 571.997280 567.005943 561.729405 556.274892 550.761151 545.315613 539.872025 534.780144 530.189773 526.243568 523.072368 520.790769 519.493093 519.249882 520.105022 522.073608 525.084883 529.152208 534.204662 540.142155 546.837322 554.138287 561.872229 569.849690 577.869516 585.724304 593.792706 601.241029 607.830994 613.348019 617.610079 620.475714 621.850864 621.694258 620.021086 616.904785 610.499842 603.133515 595.202859 587.127796 579.332460 572.226299 566.185639 561.536447 558.538922 557.374573 560.828787 565.979209 572.510404 580.040545 588.140237 596.353173 604.217811 611.289205 617.160156 621.480835 620.963736 618.694825 614.827531 609.587058 603.257602 596.167394 588.672199 581.137954 573.923233 ) qmult=(286.085144 286.959331 288.161609 289.646761 291.361101 293.244339 295.231659 297.255945 299.250074 301.149203 302.892982 304.289878 305.444628 306.332634 306.938820 307.257813 307.293840 307.060343 306.579326 305.880467 305.000008 303.930105 302.768953 301.568390 300.380579 299.256146 298.242385 297.381589 296.709550 296.254292 296.035065 296.195488 296.590577 297.199580 297.993608 298.936963 299.988676 301.104209 302.237260 303.341592 304.372833 305.058410 305.614246 306.029576 306.298514 306.419664 306.395594 306.232204 305.938014 305.523431 305.000008 304.588448 304.074118 303.451493 302.716321 301.866417 300.902457 299.828700 298.653631 297.390460 296.057457 294.410912 292.769258 291.187134 289.720329 288.423600 287.348479 286.541117 286.040282 285.875548 286.065781 286.825567 287.923583 289.324572 290.982740 292.843350 294.844616 296.919824 298.999615 301.014354 302.896500 304.435709 305.735895 306.760523 307.481405 307.879305 307.944292 307.675826 307.082594 306.182096 305.000008 303.558056 301.907292 300.093096 298.164578 296.173114 294.170844 292.209157 290.337233 288.600652 287.040138 285.668780 284.537611 283.668683 283.075750 282.763901 282.729443 282.960054 283.435191 284.126757 285.000000 286.161230 287.407922 288.680759 289.920649 291.071114 292.080595 292.904583 293.507501 293.864271 293.961479 293.373370 292.571611 291.614384 290.566873 289.497861 288.476185 287.567193 286.829351 286.311120 286.048256 286.593672 287.374486 288.335321 289.409392 290.521841 291.593418 292.544367 293.298361 293.786326 293.950005 293.200374 292.101682 290.688124 289.007401 287.118441 285.088717 282.991271 280.901562 278.894266 277.040138 275.788197 274.774110 274.009916 273.498613 273.234857 273.205950 273.393058 273.772601 274.317759 275.000000 275.440126 275.991142 276.655903 277.436761 278.334601 279.347876 280.471689 281.696978 283.009859 284.391167 286.150678 287.895574 289.563890 291.092961 292.422044 293.494970 294.262706 294.685741 294.736184 294.399506 293.271208 291.805997 290.067323 288.129296 286.073688 283.986658 281.955330 280.064339 278.392481 277.009567 276.266481 275.888456 275.880122 276.232253 276.922592 277.917094 279.171555 280.633547 282.244602 283.942551 285.544792 287.119624 288.617428 289.992663 291.205235 292.221669 293.016063 293.570781 293.876876 293.934227 293.597129 293.048876 292.326328 291.471322 290.528683 289.544160 288.562364 287.624780 286.767932 286.021774 285.667285 285.436808 285.313298 285.272904 285.286481 285.321318 285.343007 285.317374 285.212391 285.000000 284.364662 283.609464 282.750417 281.809027 280.811209 279.786018 278.764262 277.777048 276.854328 276.023491 275.502448 275.098424 274.808615 274.625891 274.539354 274.535037 274.596711 274.706759 274.847082 275.000000 274.972469 274.942039 274.911123 274.883334 274.862963 274.854422 274.861678 274.887699 274.933957 275.000000 275.197335 275.396736 275.581369 275.733216 275.833848 275.865251 275.810680 275.655501 275.387978 275.000000 274.376461 273.639193 272.802862 271.885994 270.910380 269.900376 268.882122 267.882704 266.929291 266.048264 265.268256 264.606982 264.083403 263.712825 263.506398 263.470737 263.607686 263.914216 264.382481 265.000008 265.811082 266.729389 267.726192 268.770873 269.832052 270.878720 271.881362 272.813013 273.650229 274.373917 274.773217 275.052771 275.225578 275.308288 275.320028 275.281155 275.211985 275.131559 275.056499 275.000000 275.214555 275.440145 275.656161 275.839431 275.965642 276.010852 275.953025 275.773521 275.458475 275.000000 274.078232 273.045997 271.943466 270.815220 269.708302 268.670149 267.746485 266.979267 266.404750 266.051758 266.235513 266.645352 267.256921 268.038168 268.950956 269.952874 270.999197 272.044911 273.046718 273.964943 274.498237 274.909495 275.200555 275.379079 275.457693 275.452952 275.384140 275.271996 275.137385 275.000000 274.997777 275.012845 275.045008 275.090336 275.141239 275.186709 275.212712 275.202712 275.138313 275.000000 274.755846 274.400312 273.916320 273.288801 272.505448 271.557421 270.439965 269.152918 267.701099 266.094536 264.283408 262.359039 260.352013 258.296620 256.229918 254.190682 252.218292 250.351563 248.627577 247.080540 245.676588 244.509780 243.604850 242.979363 242.642815 242.595962 242.830411 243.328498 244.063476 245.000004 246.327320 247.744399 249.177335 250.551003 251.792084 252.832068 253.610140 254.075827 254.191313 253.933334 252.866570 251.464595 249.788077 247.909450 245.909677 243.874744 241.891981 240.046368 238.416964 237.073578 236.533095 236.339875 236.483717 236.941896 237.680949 238.658825 239.827314 241.134642 242.528116 243.956718 244.875398 245.784312 246.690636 247.605346 248.541629 249.513157 250.532328 251.608551 252.746671 253.945618 255.694854 257.438879 259.114308 260.655609 261.998231 263.081808 263.853306 264.269968 264.301951 263.934525 262.646764 261.026353 259.152987 257.118160 255.021415 252.966263 251.055939 249.389115 248.055773 247.133339 247.003645 247.360109 248.199037 249.498098 251.217261 253.300315 255.676928 258.265169 260.974417 263.708557 266.391071 268.903569 271.151785 273.049476 274.521670 275.507586 275.963115 275.862795 275.201189 273.993614 271.849230 269.286241 266.414006 263.353938 260.234616 257.186650 254.337476 251.806281 249.699231 248.105179 247.624434 247.722772 248.375990 249.539128 251.149121 253.128068 255.386975 257.829830 260.357853 262.873764 264.872167 266.721264 268.384424 269.835793 271.060445 272.054121 272.822602 273.380747 273.751258 273.963211 274.172712 274.282665 274.321709 274.319618 274.306244 274.310513 274.359474 274.477461 274.685357 275.000000 275.436156 275.998964 276.690836 277.509301 278.447221 279.493147 280.631815 281.844756 283.110999 284.407845 285.633746 286.849613 288.038699 289.184891 290.273035 291.289247 292.221186 293.058308 293.792085 294.416191 294.969561 295.404102 295.717432 295.910247 295.986531 295.953700 295.822655 295.607743 295.326621 295.000008 294.475609 293.969102 293.522099 293.175419 292.967460 292.932647 293.100006 293.491923 294.123136 295.000008 296.411221 298.030124 299.813426 301.713043 303.678541 305.659649 307.608777 309.483410 311.248290 312.877296 313.830980 314.673365 315.454803 316.231985 317.064709 318.012478 319.131105 320.469440 322.066373 323.948242 326.754489 329.799718 333.012542 336.311788 339.610396 342.819613 345.853264 348.631968 351.087100 353.164337 354.029129 354.529230 354.731983 354.717396 354.573787 354.393104 354.266123 354.277702 354.502308 355.000000 356.614588 358.497723 360.585142 362.798802 365.051191 367.250046 369.303297 371.124020 372.635200 373.774094 373.660315 373.177699 372.392546 371.386028 370.250105 369.082984 367.984346 367.050488 366.369623 366.017487 366.688441 367.731917 369.115337 370.790035 372.693884 374.754434 376.892441 379.025634 381.072572 382.956451 384.155831 385.106405 385.801201 386.244361 386.450421 386.443234 386.254567 385.922440 385.489288 385.000000 384.639832 384.299632 384.008989 383.794229 383.677632 383.676810 383.804256 384.067077 384.466905 385.000000 385.555540 386.230633 387.015789 387.896948 388.855755 389.869988 390.914125 391.960050 392.977880 393.936890 394.932431 395.799348 396.500371 397.002906 397.280735 397.315547 397.098249 396.629980 395.922805 395.000015 393.494875 391.886829 390.262767 388.713430 387.329594 386.198187 385.398506 384.998669 385.052431 385.596497 387.090891 389.052390 391.421549 394.122937 397.068329 400.160353 403.296447 406.372988 409.289442 411.952377 413.823679 415.330123 416.456356 417.200781 417.574712 417.601101 417.312927 416.751290 415.963327 415.000000 414.133284 413.176121 412.160539 411.116735 410.072584 409.053284 408.081142 407.175477 406.352635 405.626099 404.793644 404.094848 403.552836 403.186367 403.009013 403.028479 403.246083 403.656443 404.247374 405.000015 406.092028 407.273044 408.491014 409.692284 410.823876 411.835770 412.683100 413.328192 413.742343 413.907288 413.374705 412.628552 411.721979 410.715246 409.672664 408.659382 407.738169 406.966296 406.392663 406.055283 406.441547 407.060308 407.869912 408.818372 409.846143 410.889236 411.882517 412.763069 413.473487 413.964951 413.669916 413.140291 412.409760 411.522374 410.530319 409.491373 408.466170 407.515376 406.696882 406.063141 405.991572 406.154815 406.549471 407.163218 407.975806 408.960354 410.084880 411.313999 412.610728 413.938309 414.969916 415.991990 417.001705 417.999147 418.986773 419.968763 420.950312 421.936881 422.933460 423.943863 425.060676 426.184783 427.306059 428.412538 429.490788 430.526361 431.504345 432.409958 433.229183 433.949417 434.494238 434.927686 435.250141 435.464748 435.577432 435.596834 435.534176 435.403058 435.219182 435.000000 434.617911 434.250880 433.930771 433.687692 433.548657 433.536344 433.667995 433.954498 434.399707 435.000000 435.935985 436.981227 438.094547 439.230558 440.341656 441.380115 442.300200 443.060230 443.624495 443.964966 443.674059 443.164533 442.469616 441.629308 440.688220 439.693271 438.691314 437.726811 436.839640 436.063126 435.765066 435.589036 435.512990 435.508072 435.540460 435.573434 435.569594 435.493117 435.311973 435.000000 434.142731 433.161164 432.087956 430.962269 429.828010 428.731868 427.721252 426.842173 426.137193 425.643494 425.591329 425.784288 426.218349 426.881413 427.753939 428.809850 430.017646 431.341718 432.743775 434.184357 435.476629 436.744445 437.965467 439.120098 440.191848 441.167601 442.037771 442.796355 443.440887 443.972290 444.271717 444.478669 444.612470 444.693154 444.740313 444.772003 444.803752 444.847702 444.911941 445.000031 445.351508 445.700101 446.015946 446.267779 446.424905 446.459208 446.347090 446.071270 445.622341 445.000031 443.625923 442.157456 440.672415 439.251982 437.976727 436.922566 436.156857 435.734788 435.696223 436.063126 437.583762 439.430675 441.504529 443.694053 445.881455 447.948144 449.780529 451.275653 452.346456 452.926422 451.957427 450.527039 448.730625 446.681676 444.505997 442.335405 440.301214 438.527747 437.126162 436.188812 436.742667 437.788414 439.260662 441.073330 443.124375 445.301158 447.486217 449.563220 451.422828 452.968262 453.193726 453.048652 452.574530 451.829562 450.885098 449.821555 448.723996 447.677548 446.762862 446.051788 446.220498 446.641134 447.289057 448.126270 449.103556 450.163075 451.241311 452.272242 453.190605 453.935120 453.935174 453.707614 453.261167 452.612560 451.785211 450.807697 449.712060 448.532038 447.301300 446.051758 445.133700 444.221759 443.308659 442.384430 441.437647 440.456775 439.431571 438.354456 437.221803 436.035065 434.389832 432.747100 431.160775 429.687026 428.381812 427.298369 426.484741 425.981461 425.819471 426.018372 426.915688 428.145868 429.661932 431.406889 433.316119 435.320032 437.346916 439.325849 441.189591 442.877319 443.972306 444.830303 445.452259 445.848923 446.039728 446.051384 445.916240 445.670499 445.352339 445.000031 444.769446 444.563263 444.400291 444.294614 444.255179 444.285611 444.384248 444.544388 444.754734 445.000031 445.206255 445.413691 445.604647 445.760481 445.862404 445.892322 445.833668 445.672211 445.396801 445.000031 444.380704 443.646960 442.813143 441.897517 440.921683 439.909893 438.888290 437.884078 436.924663 436.036789 435.195450 434.477590 433.907178 433.503974 433.282705 433.252399 433.415890 433.769534 434.303118 435.000000 435.908648 436.924087 438.007549 439.117194 440.209583 441.241225 442.170139 442.957384 443.568503 443.974823 443.941532 443.685911 443.219327 442.559427 441.729081 440.755174 439.667297 438.496391 437.273389 436.027908 434.875770 433.743846 432.644184 431.584756 430.569456 429.598270 428.667617 427.770823 426.898730 426.040390 425.100673 424.158230 423.207969 422.245121 421.265561 420.266107 419.244792 418.201100 417.136158 416.052872 414.849416 413.647776 412.464956 411.318473 410.225604 409.202656 408.264266 407.422777 406.687712 406.065353 405.664065 405.368721 405.166302 405.041479 404.977483 404.957037 404.963311 404.980855 404.996477 405.000015 404.681395 404.367294 404.084111 403.859351 403.719930 403.690483 403.791752 404.039138 404.441463 405.000015 406.092162 407.286458 408.528482 409.760288 410.923290 411.961227 412.823085 413.465853 413.856994 413.976517 413.154123 412.119556 410.950766 409.733458 408.556733 407.508566 406.671298 406.117329 405.905194 406.076172 407.356316 408.980420 410.868878 412.927227 415.050682 417.129101 419.052192 420.714756 422.021752 422.892990 422.502807 421.642752 420.359686 418.718059 416.796524 414.684046 412.475663 410.268058 408.155141 406.223785 405.057741 404.166138 403.553033 403.209147 403.113114 403.233182 403.529304 403.955503 404.462434 405.000015 405.148945 405.269138 405.352678 405.395762 405.398378 405.363831 405.298135 405.209323 405.106686 405.000015 405.072889 405.144832 405.209059 405.258767 405.287658 405.290474 405.263521 405.205141 405.116126 405.000015 404.537406 404.090749 403.698531 403.398239 403.224262 403.205874 403.365410 403.716683 404.263740 405.000015 406.349205 407.804813 409.292471 410.733339 412.047888 413.159789 413.999744 414.509112 414.643177 414.373917 413.038737 411.357846 409.415382 407.308722 405.144086 403.031777 401.081242 399.396152 398.069672 397.180115 397.236249 397.787143 398.811094 400.266289 402.092632 404.214217 406.542370 408.979129 411.421056 413.763245 415.739636 417.434385 418.774654 419.699150 420.160329 420.126191 419.581604 418.529112 416.989201 415.000000 412.323238 409.346011 406.175701 402.927579 399.720459 396.672220 393.895354 391.492706 389.553525 388.149994 387.659930 387.759592 388.429610 389.630229 391.303211 393.374341 395.756445 398.352814 401.060913 403.776245 406.2