New loadshape.LS_PhaseA npts=1440 sinterval=60 pmult=(567.362244 563.788971 561.223551 559.678625 559.116413 559.453233 560.565810 562.299072 564.475097 566.902824 569.388123 570.713067 571.831827 572.680024 573.213533 573.409631 573.267288 572.806625 572.067577 571.107813 570.000000 568.514151 567.079463 565.818199 564.849361 564.282670 564.212827 564.714301 565.836833 567.601860 570.000000 573.814322 578.078049 582.620342 587.251113 591.769089 595.970413 599.657473 602.647611 604.781382 605.930054 604.807931 602.662661 599.585760 595.702661 591.166758 586.152519 580.847948 575.446669 570.139940 565.108887 561.081186 557.581419 554.675761 552.403630 550.777486 549.783625 549.383909 549.518359 550.108502 551.061340 552.245463 553.587123 554.979002 556.317398 557.506930 558.464948 559.125495 559.442656 559.393174 558.978210 557.356253 555.518450 553.609883 551.787763 550.213785 549.046240 548.432188 548.499998 549.352545 551.061340 554.501594 558.757031 563.715721 569.234078 575.142583 581.252504 587.363377 593.270971 598.775453 603.689453 607.254145 609.975256 611.792351 612.675884 612.627949 611.682052 609.901904 607.379293 604.231088 600.595459 596.119398 591.516713 587.002253 582.786572 579.067460 576.021898 573.798718 572.512243 572.237149 573.004761 575.936497 579.742685 584.227444 589.165853 594.314510 599.422801 604.244428 608.548762 612.131571 614.824707 614.788240 613.811923 612.014941 609.554395 606.616473 603.406531 600.138494 597.024022 594.261853 592.027771 591.531936 591.716956 592.557338 593.990835 595.921806 598.225937 600.756130 603.349347 605.834134 608.038574 609.766558 610.911065 611.347225 610.978389 609.741963 607.614144 604.613336 600.802097 596.287457 591.219543 583.946189 576.684737 569.837824 563.809068 558.984307 555.713148 554.291546 554.946112 557.820791 562.966492 573.313435 585.479802 598.972548 613.234689 627.669579 641.666821 654.628830 665.997025 675.276661 682.059326 682.237002 679.758156 674.876030 667.937667 659.364890 649.632718 639.246113 628.715996 618.535504 609.157410 604.420911 600.894972 598.526024 597.197685 596.742654 596.956680 597.613944 598.483129 599.343464 600.000000 596.991042 593.803556 590.657465 587.801276 585.498141 584.010919 583.586903 584.442881 586.751165 590.627258 598.980967 608.679907 619.391168 630.734599 642.299659 653.663570 664.410072 674.148022 682.529121 689.264038 691.020190 691.047129 689.552555 686.804452 683.115552 678.826253 674.286664 669.838557 665.797946 662.439026 663.020618 664.393727 666.391119 668.799607 671.374187 673.853623 675.976778 677.498965 678.207614 677.936523 673.055666 667.348105 661.130262 654.756310 648.599774 643.034106 638.413042 635.051571 633.208332 633.070190 638.272378 644.990079 652.851920 661.427170 670.247021 678.827536 686.693324 693.401000 698.561476 701.860168 699.202678 694.674567 688.581958 681.306192 673.283949 664.985253 656.890274 649.465857 643.142729 638.294312 638.514970 640.428533 643.875354 648.623389 654.382163 660.819031 667.577044 674.293676 680.619628 686.236938 688.155165 689.124927 689.229145 688.601937 687.420053 685.892575 684.249380 682.728812 681.565098 680.976013 682.495920 684.811035 687.919515 691.781807 696.322765 701.435126 706.984211 712.813644 718.751866 724.619202 729.596476 734.206704 738.339960 741.898843 744.801267 746.982825 748.398693 749.025019 748.859762 747.922974 746.249380 743.909312 740.985684 737.578954 733.804678 729.790643 725.673652 721.596022 717.701883 714.133362 710.355790 707.220210 704.894357 703.522255 703.217639 704.058262 706.081335 709.280288 713.603023 718.951782 726.343260 734.340508 742.631654 750.887988 758.777759 765.980312 772.200018 777.179506 780.711674 782.650024 781.007146 777.852281 773.412633 767.971651 761.856570 755.424452 749.047258 743.096502 737.928049 733.867615 732.734811 733.085882 734.961576 738.349097 743.185511 749.362816 756.734418 765.122721 774.327488 784.134644 792.683094 801.540261 810.633319 819.889474 829.233702 838.586422 847.861297 856.963376 865.787735 874.218811 883.691564 892.378126 900.010557 906.333951 911.118323 914.170175 915.343265 914.548117 911.759859 907.023987 898.096813 887.734354 876.391910 864.565855 852.773931 841.534676 831.346712 822.668667 815.900458 811.366638 811.474173 813.999068 818.796432 825.636081 834.214431 844.168850 855.093913 866.558943 878.126168 889.368835 897.972842 905.668122 912.311340 917.807026 922.106945 925.207835 927.147695 928.000840 927.871991 926.889648 926.064957 924.609548 922.612511 920.169295 917.379993 914.347769 911.177404 907.973938 904.841404 901.881592 898.015365 894.611852 891.853282 889.901624 888.891205 888.922152 890.054949 892.306356 895.646897 900.000061 907.252183 915.064766 923.071935 930.897651 938.174156 944.560296 949.758980 953.533045 955.718852 956.237000 950.970124 944.499660 937.358580 930.123873 923.386568 917.720901 913.653899 911.636606 912.018176 915.023926 925.936932 939.050276 953.723861 969.221066 984.743742 999.469940 1012.592883 1023.359651 1031.108031 1035.300049 1029.953216 1020.938714 1008.685468 993.758560 976.831421 958.654074 940.018683 921.723760 904.538425 889.168091 879.936442 873.288743 869.273004 867.819112 868.747069 871.779259 876.556172 882.654947 889.609970 896.934753 902.752105 908.125233 912.744534 916.345288 918.717273 919.712410 919.250179 917.320663 913.985097 909.373901 902.192854 894.302063 886.124466 878.105532 870.692892 864.315788 859.365099 856.174711 855.004944 856.028687 861.769140 869.540329 879.008878 889.762814 901.329711 913.197150 924.834720 935.716727 945.344764 953.269287 956.652848 957.872579 956.928059 953.900167 948.944988 942.285224 934.199490 925.009935 915.068643 904.743347 895.308331 886.130315 877.468107 869.553431 862.584849 856.722911 852.086632 848.751349 846.747980 846.063660 846.619810 848.353475 851.137853 854.816013 859.206885 864.111885 869.321935 874.624656 879.811477 884.684448 888.027983 890.804723 892.966022 894.482354 895.340453 895.539997 895.090046 894.005434 892.303315 890.000061 888.286619 885.893813 882.728570 878.704230 873.747133 867.803182 860.844085 852.872951 843.928981 834.090942 821.798583 809.038564 796.148256 783.483603 771.405754 760.267255 750.398298 742.093520 735.599839 731.105774 729.726199 730.426919 733.099153 737.566781 743.592697 750.887170 759.117957 767.921815 776.917064 785.716797 793.841104 801.050299 807.027503 811.499130 814.244846 815.105979 813.992082 810.885399 805.843054 798.996826 788.814338 777.444053 765.355797 753.050243 741.038269 729.819923 719.863777 711.587398 705.339671 701.385620 702.422462 705.773286 711.191300 718.348510 726.852301 736.264257 746.120457 755.952462 765.308160 773.771667 778.050627 781.037771 782.757965 783.294414 782.779286 781.382503 779.299233 776.736645 773.900530 770.982361 770.226544 769.501175 768.724681 767.788566 766.564297 764.911350 762.686039 759.750733 755.983067 751.284729 744.089905 736.002943 727.159148 717.723705 707.885807 697.851883 687.838181 678.062970 668.738636 660.063965 652.522388 645.928547 640.376355 635.926261 632.603437 630.397107 629.261024 629.115105 629.848171 631.321716 633.960897 636.956970 640.072621 643.071891 645.730174 647.843864 649.239295 649.780623 649.376328 647.984070 643.542559 638.357704 632.710566 626.907883 621.265978 616.094255 611.678942 608.267748 606.056063 605.175293 608.546672 613.045806 618.341374 624.053488 629.772821 635.081088 639.572051 642.872190 644.660192 644.684448 639.109941 631.846245 623.218029 613.614716 603.470615 593.243311 583.391178 574.350942 566.516200 560.217773 559.141737 559.715789 561.720704 564.868162 568.817372 573.193811 577.609279 581.682437 585.058979 587.430603 585.350478 582.129209 577.941503 573.020367 567.644062 562.121210 556.774693 551.925000 547.873716 544.887817 545.360548 547.083600 549.970745 553.883778 558.639886 564.020750 569.782971 575.669404 581.420939 586.788269 589.978670 592.497327 594.311923 595.419584 595.844519 595.634723 594.857927 593.596998 591.944987 590.000061 588.622220 587.076683 585.388086 583.577715 581.664516 579.666377 577.601584 575.490359 573.356367 571.228088 568.368543 565.656445 563.201680 561.112445 559.490814 558.428374 558.002114 558.270715 559.271407 561.017517 564.081297 567.790201 572.032847 576.679483 581.587068 586.604816 591.580012 596.363879 600.817277 604.816040 607.382599 609.383897 610.835783 611.773134 612.246424 612.317826 612.057000 611.536777 610.828894 610.000000 609.936693 609.786626 609.515764 609.083818 608.447765 607.565609 606.400199 604.922924 603.117074 600.980713 597.131923 593.118421 589.104403 585.256889 581.737146 578.692171 576.246622 574.495515 573.498030 573.272705 575.538624 578.334704 581.406272 584.476182 587.258270 589.471374 590.853330 591.174418 590.249684 587.949646 581.892209 574.596422 566.325597 557.390674 548.135806 538.922644 530.113952 522.057166 515.068561 509.418610 507.245641 506.598498 507.389656 509.472114 512.647489 516.675999 521.287878 526.195806 531.107848 535.740417 538.498871 540.603679 541.972122 542.556476 542.343804 541.354524 539.639848 537.278212 534.370877 531.036865 527.511577 523.815234 520.078826 516.430134 512.988768 509.861578 507.138627 504.889831 503.162399 501.979156 501.905783 502.301793 503.070290 504.098802 505.265256 506.444323 507.513866 508.361234 508.889139 509.020874 507.300318 505.226228 502.917647 500.508822 498.141364 495.956082 494.084829 492.642736 491.721162 491.381683 493.414932 495.898509 498.641612 501.434498 504.059707 506.303783 507.968979 508.884473 508.916580 507.977539 503.661698 498.563902 492.956101 487.142980 481.446932 476.192179 471.688676 468.216432 466.010897 465.250000 468.218176 472.586476 478.133589 484.580038 491.600791 498.839665 505.924944 512.485642 518.167772 522.650024 523.922560 523.659791 521.855336 518.560618 513.881190 507.971276 501.026758 493.276910 484.975180 476.389374 468.405083 460.618212 453.231960 446.433175 440.387526 435.235445 431.088902 428.029094 426.105081 425.333374 425.474655 426.726794 429.032971 432.308334 436.442564 441.303162 446.739364 452.586589 458.671285 464.816071 471.042149 476.968970 482.422846 487.248601 491.315060 494.519854 496.793375 498.101725 498.448547 497.875641 495.493789 492.466088 489.017651 485.390938 481.835240 478.595916 475.903775 473.964990 472.951925 472.995209 475.333894 478.742734 483.104066 488.257703 494.008515 500.135266 506.400360 512.560146 518.375358 523.621338 527.006235 529.549979 531.211498 531.982739 531.887226 530.977544 529.331886 527.049804 524.247353 521.051819 517.784764 514.370745 510.923724 507.550339 504.346279 501.393143 498.755891 496.480971 494.595163 493.105194 492.348641 491.916108 491.730994 491.706202 491.749111 491.766770 491.671125 491.384048 490.841981 490.000000 487.976017 485.703600 483.278381 480.812219 478.427979 476.253827 474.417261 473.039108 472.227721 472.073608 473.157232 474.961712 477.458590 480.594299 484.292053 488.454553 492.967428 497.703269 502.526132 507.296356 511.623235 515.650767 519.277261 522.413154 524.983754 526.931589 528.218285 528.825918 528.757795 528.038635 526.243357 523.946303 521.269376 518.345494 515.313395 512.312346 509.476928 506.932096 504.788685 503.139526 502.761471 502.938782 503.638416 504.810051 506.390353 508.307687 510.487071 512.855137 515.344888 517.900024 519.316909 520.831281 522.530657 524.509629 526.863783 529.683392 533.047135 537.016121 541.628490 546.894836 553.777140 561.154333 568.860000 576.705220 584.485503 591.988443 599.001800 605.321722 610.760807 615.155701 617.510690 618.669309 618.645656 617.488259 615.277452 612.121796 608.153685 603.524298 598.398074 592.946899 587.406450 581.874869 576.507295 571.445213 566.812184 562.710219 559.216922 556.383487 554.233614 552.763367 552.317730 552.435526 553.007963 553.911134 555.012112 556.175350 557.269146 558.171922 558.778082 559.003235 557.911578 556.424976 554.614626 552.573770 550.412862 548.254057 546.225275 544.454041 543.061365 542.155884 542.263808 542.978544 544.308193 546.237219 548.726923 551.716760 555.126449 558.858804 562.803190 566.839478 570.751855 574.515528 578.015236 581.142847 583.801348 585.908549 587.400412 588.233850 588.388920 587.870300 586.155622 583.898585 581.222910 578.268585 575.186406 572.132167 569.260703 566.720001 564.645570 563.155273 562.645194 562.857552 563.809753 565.492327 567.869690 570.881774 574.446464 578.462749 582.814496 587.374695 592.036546 596.639952 601.050575 605.141883 608.799830 611.927149 614.447084 616.306440 617.477817 617.960937 616.798810 615.110361 613.054000 610.799902 608.521320 606.385792 604.546580 603.134703 602.251865 601.964600 603.637925 605.805520 608.301706 610.933509 613.490304 615.754265 617.511232 618.561538 618.730370 617.877258 614.362461 609.812493 604.354971 598.156014 591.412780 584.344862 577.184873 570.168584 563.524992 557.466675 552.966852 549.322402 546.585081 544.770867 543.860341 543.800299 544.506501 545.867447 547.749047 550.000000 552.229833 554.521832 556.727040 558.700933 560.308369 561.428268 561.957872 561.816454 560.948357 559.325256 556.527174 553.039477 548.954256 544.386277 539.468515 534.347139 529.176099 524.111523 519.306089 514.903564 511.053041 507.842155 505.358366 503.663923 502.793565 502.753140 503.519171 505.039422 507.234434 510.000000 513.671000 517.608793 521.620503 525.510802 529.090091 532.182563 534.633861 536.318031 537.143503 537.057861 534.672296 531.515531 527.776798 523.672678 519.436684 515.308219 511.521351 508.293824 505.816764 504.245453 505.105138 506.922948 509.594675 512.976899 516.894610 521.150057 525.532453 529.828163 533.830957 537.351929 539.005905 539.995776 540.331885 540.056432 539.240526 537.980175 536.391379 534.604538 532.758381 530.993652 529.702713 528.729803 528.165308 528.082026 528.532103 529.544694 531.124431 533.250743 535.878057 538.936890 542.585770 546.445182 550.368287 554.199128 557.778616 560.950714 563.568626 565.500749 566.636191 566.889648 565.494284 563.199258 560.072989 556.211204 551.732863 546.775373 541.489257 536.032490 530.564684 525.241333 520.607182 516.359111 512.577723 509.325576 506.646328 504.564517 503.085941 502.198619 501.874255 502.070129 502.338778 503.042499 504.140932 505.584897 507.317166 509.273422 511.383414 513.572307 515.762196 517.873779 519.997357 521.873186 523.415337 524.545965 525.198116 525.318333 524.868942 523.829974 522.200602 520.000061 516.905112 513.369530 509.501104 505.421050 501.259991 497.153637 493.238297 489.646366 486.501922 483.916565 481.932577 480.681543 480.221584 480.586175 481.782513 483.790677 486.563638 490.028116 494.086292 498.618317 503.832780 509.202204 514.534590 519.636147 524.318422 528.405342 531.739950 534.190570 535.656189 536.070862 534.494526 531.929355 528.501678 524.367425 519.705125 514.708203 509.576832 504.509667 499.695734 495.306793 492.215373 489.750820 487.938241 486.773014 486.222521 486.228883 486.712543 487.576549 488.711363 490.000000 490.814753 491.594123 492.269963 492.780435 493.071457 493.097831 492.824058 492.224809 491.285074 490.000000 488.292373 486.263701 483.942658 481.364059 478.567085 475.593457 472.485616 469.284983 466.030348 462.756470 459.593770 456.456451 453.353269 450.287225 447.256182 444.253731 441.270274 438.294266 435.313560 432.316803 429.168597 426.001753 422.824959 419.650863 416.496243 413.382004 410.333013 407.377752 404.547793 401.877106 399.046237 396.475104 394.227749 392.362543 390.929040 389.965069 389.494166 389.523475 390.042210 391.020752 392.918046 395.117361 397.493579 399.911988 402.233610 404.320784 406.042786 407.281289 407.935454 407.926453 406.442315 404.283008 401.515106 398.227709 394.528211 390.537464 386.384544 382.201295 378.116879 374.252502 371.111081 368.353964 366.020390 364.130732 362.686581 361.671511 361.052483 360.781813 360.799646 361.036804 361.210532 361.469565 361.752387 361.998691 362.151534 362.159396 361.978074 361.572358 360.917438 ) qmult=(405.000015 404.163108 403.194110 402.124042 400.992371 399.844941 398.731606 397.703670 396.811250 396.100655 395.611908 395.677620 395.990866 396.536989 397.291980 398.223484 399.292100 400.452968 401.657541 402.855517 403.996826 404.875941 405.621301 406.207537 406.614864 406.829635 406.844727 406.659739 406.281003 405.721403 405.000015 404.084940 403.066993 401.984558 400.878574 399.791168 398.764267 397.838214 397.050435 396.434197 396.017502 395.768821 395.760249 396.003411 396.501541 397.249115 398.231742 399.426358 400.801699 402.319063 403.933334 405.799687 407.642723 409.389804 410.970184 412.317956 413.374884 414.092998 414.436864 414.385424 413.933334 412.471429 410.699238 408.710430 406.606795 404.493280 402.472897 400.641705 399.084076 397.868420 397.043564 397.449801 398.206596 399.225773 400.403317 401.624797 402.771244 403.725239 404.376974 404.630030 404.406647 402.695309 400.507377 397.920625 395.032480 391.955228 388.810649 385.724297 382.819644 380.212340 378.004791 377.011602 376.500920 376.451349 376.822357 377.556869 378.584474 379.825114 381.193086 382.601202 383.964951 384.669079 385.230797 385.638593 385.890684 385.994241 385.964276 385.822238 385.594404 385.310123 385.000000 384.895442 384.804713 384.735969 384.694675 384.683525 384.702513 384.749137 384.818732 384.904895 385.000000 384.983439 384.969288 384.958556 384.951980 384.949980 384.952640 384.959699 384.970572 384.984379 385.000000 385.021239 385.041388 385.058613 385.071201 385.077697 385.077024 385.068598 385.052413 385.029110 385.000000 384.833903 384.677596 384.544863 384.448389 384.398888 384.404290 384.469029 384.593458 384.773420 385.000000 385.347738 385.702448 386.034478 386.311511 386.499792 386.565464 386.475974 386.201485 385.716268 385.000000 383.964631 382.685386 381.170224 379.435034 377.503543 375.406997 373.183615 370.877813 368.539244 366.221634 363.838199 361.601531 359.580767 357.841679 356.444290 355.440632 354.872694 354.770640 355.151375 356.017487 357.468492 359.355305 361.626872 364.219507 367.058731 370.061465 373.138519 376.197292 379.144611 381.889633 384.365871 386.476395 388.152084 389.336535 389.988136 390.081718 389.609753 388.583018 387.030714 385.000000 382.103809 378.909436 375.545778 372.147372 368.848979 365.780167 363.060055 360.792439 359.061462 357.927994 358.070013 358.797009 360.035966 361.692859 363.657360 365.808120 368.018430 370.162027 372.118852 373.780502 374.382900 374.586106 374.396990 373.841388 372.962108 371.816332 370.472509 369.006876 367.499754 366.031754 364.978956 364.085201 363.387067 362.911899 362.677055 362.689525 362.945938 363.432937 364.127903 365.000000 366.011910 367.121614 368.282060 369.444192 370.558901 371.578978 372.461003 373.167102 373.666513 373.936890 373.682168 373.206443 372.539903 371.719821 370.788601 369.791656 368.775192 367.783993 366.859289 366.036789 365.553816 365.202942 364.977760 364.864008 364.840412 364.879819 364.950563 365.018024 365.046308 365.000000 364.764817 364.400738 363.890120 363.221027 362.387987 361.392544 360.243578 358.957381 357.557464 356.074112 354.308309 352.555913 350.881328 349.348997 348.020641 346.952543 346.192991 345.779963 345.739159 346.082443 347.163315 348.576849 350.260662 352.141611 354.138818 356.166984 358.139867 359.973778 361.590996 362.922943 363.445877 363.624872 363.471102 363.007803 362.268478 361.294769 360.134092 358.837133 357.455313 356.038315 354.981877 353.945151 352.932089 351.941620 350.968541 350.004643 349.039967 348.064156 347.067823 346.043869 344.669526 343.292607 341.944648 340.659279 339.470837 338.412900 337.516798 336.810164 336.315590 336.049423 336.200206 336.574036 337.149335 337.898004 338.786481 339.776978 340.828871 341.900162 342.948990 343.935120 344.632338 345.213204 345.665398 345.980835 346.155423 346.188700 346.083387 345.844886 345.480725 345.000015 344.564303 344.020227 343.366447 342.603049 341.732046 340.757863 339.687773 338.532247 337.305211 336.024155 334.405864 332.804369 331.271336 329.857419 328.609971 327.570822 326.774218 326.245000 325.997109 326.032471 326.702203 327.590387 328.631894 329.753942 330.879285 331.929589 332.828897 333.507012 333.902715 333.966660 333.242291 332.168937 330.779054 329.118537 327.244582 325.223150 323.126148 321.028414 319.004628 317.126266 315.679707 314.480601 313.557053 312.926872 312.597254 312.564823 312.816018 313.327807 314.068700 315.000015 315.983530 317.073389 318.226095 319.396420 320.538738 321.608377 322.562949 323.363630 323.976342 324.372818 324.519525 324.415651 324.055970 323.443365 322.588851 321.511390 320.237464 318.800454 317.239804 315.600006 313.739520 311.914316 310.191860 308.637294 307.310933 306.265901 305.546005 305.183920 305.199745 305.600006 306.719230 308.165276 309.875441 311.778258 313.796791 315.852127 317.866937 319.768965 321.494321 322.990433 323.730099 324.220652 324.495202 324.599032 324.587035 324.520799 324.465442 324.486326 324.645787 325.000000 325.887532 327.026347 328.415512 330.042555 331.884029 333.906476 336.067772 338.318788 340.605325 342.870224 344.991310 346.983483 348.799055 350.395321 351.736224 352.793835 353.549589 353.995238 354.133478 353.978226 353.335184 352.477425 351.468106 350.376585 349.275749 348.239204 347.338423 346.639967 346.202852 346.076172 346.458355 347.197082 348.288411 349.714925 351.446410 353.440946 355.646381 358.002143 360.441325 362.892975 365.270559 367.518814 369.570274 371.362877 372.842154 373.963209 374.692427 375.008841 374.905118 374.388123 373.202444 371.682504 369.898839 367.930850 365.863683 363.784936 361.781298 359.935254 358.321955 357.006378 356.282004 355.924145 355.935366 356.304167 357.005958 358.004484 359.253637 360.699600 362.283218 363.942551 365.505857 367.033721 368.479750 369.803260 370.970771 371.957265 372.747157 373.334951 373.725553 373.934235 373.786053 373.531757 373.230098 372.944417 372.739922 372.680891 372.827876 373.235033 373.947656 375.000015 376.608933 378.569250 380.857814 383.438485 386.263368 389.274445 392.405551 395.584633 398.736208 401.783936 404.543926 407.065735 409.294324 411.182206 412.690861 413.791911 414.468009 414.713407 414.534203 413.948242 412.813568 411.354724 409.634650 407.722507 405.691136 403.614422 401.564659 399.609994 397.812048 396.223785 395.030569 394.107472 393.460922 393.085633 392.965275 393.073515 393.375387 393.828955 394.387191 395.000015 395.554851 396.069847 396.503210 396.817556 396.981414 396.970536 396.768975 396.369890 395.776051 395.000015 393.796758 392.486453 391.130319 389.793882 388.544155 387.446770 386.563149 385.947850 385.646160 385.692047 386.491015 387.633204 389.080189 390.783234 392.685828 394.726515 396.841881 398.969580 401.051288 403.035446 404.313549 405.468792 406.527949 407.525038 408.498798 409.489953 410.538410 411.680492 412.946346 414.357635 416.417753 418.591757 420.827138 423.064022 425.238004 427.283227 429.135593 430.735968 432.033258 432.987213 433.062915 432.800468 432.245092 431.453424 430.490991 429.429362 428.343093 427.306574 426.390900 425.660889 425.408072 425.419723 425.708342 426.274509 427.107171 428.184323 429.474074 430.936046 432.523057 434.183029 435.806757 437.398862 438.909313 440.290870 441.500843 442.502706 443.267520 443.775122 444.015018 443.986969 443.411908 442.623444 441.675382 440.627422 439.542477 438.483886 437.512644 436.684739 436.048704 435.643478 435.857110 436.313592 436.985678 437.836559 438.822031 439.892935 440.997786 442.085468 443.107885 444.022461 444.321344 444.493066 444.561273 444.556272 444.513065 444.469194 444.462463 444.528670 444.699402 445.000031 445.722109 446.575329 447.535701 448.571598 449.645072 450.713448 451.731138 452.651615 453.429462 454.022430 454.247669 454.234487 453.972715 453.460269 452.703452 451.717008 450.523916 449.154920 447.647819 446.046509 444.169386 442.317631 440.564374 438.980751 437.632991 436.579634 435.868992 435.536942 435.605139 436.079727 437.319245 438.897799 440.743394 442.773284 444.897533 447.022846 449.056544 450.910506 452.504958 453.771942 454.139910 454.136164 453.785338 453.126313 452.209907 451.096147 449.851251 448.544436 447.244673 446.017517 445.173775 444.489087 443.982468 443.662925 443.529467 443.571510 443.769661 444.096827 444.519627 445.000031 445.471530 445.921861 446.311995 446.605343 446.769513 446.777944 446.611336 446.258841 445.718948 445.000031 443.714518 442.330044 440.916740 439.548499 438.299487 437.240622 436.436140 435.940416 435.795131 436.026932 437.171332 438.650239 440.395308 442.326220 444.354491 446.387617 448.333385 450.104198 451.621216 452.818176 452.976421 452.789881 452.300604 451.564670 450.649066 449.628174 448.579991 447.582265 446.708677 446.025238 446.032419 446.287165 446.779666 447.487954 448.379361 449.412401 450.538998 451.706964 452.862625 453.953491 454.610560 455.140214 455.533694 455.788657 455.909000 455.904471 455.790086 455.585363 455.313425 455.000000 454.647482 454.309474 454.015229 453.792179 453.664805 453.653627 453.774346 454.037173 454.446366 455.000000 455.819167 456.750308 457.763490 458.825417 459.901008 460.955072 461.953981 462.867303 463.669302 464.340271 464.521827 464.584296 464.558999 464.481844 464.391315 464.326355 464.324231 464.418456 464.636879 465.000000 465.769766 466.676326 467.691469 468.779384 469.898205 471.001828 472.041923 472.970059 473.739871 474.309174 474.421834 474.289645 473.911416 473.293983 472.451928 471.407064 470.187694 468.827677 467.365330 465.842194 464.193020 462.578546 461.050795 459.658496 458.445193 457.447528 456.693764 456.202592 455.982290 456.030243 456.572976 457.326565 458.237574 459.246424 460.290123 461.305156 462.230396 463.009939 463.595749 463.950012 463.574684 462.970396 462.177552 461.246202 460.233411 459.200370 458.209368 457.320748 456.589968 456.064880 456.138471 456.450666 456.985687 457.717535 458.611468 459.625827 460.714117 461.827281 462.916056 463.933319 464.515632 464.975707 465.310893 465.524423 465.624874 465.625421 465.542942 465.397009 465.208802 465.000000 464.832691 464.681010 464.558702 464.476700 464.442648 464.460565 464.530672 464.649368 464.809369 465.000000 465.194999 465.392480 465.575626 465.726457 465.826602 465.858113 465.804309 465.650586 465.385207 465.000000 464.378999 463.644577 462.811231 461.897279 460.924274 459.916328 458.899350 457.900238 456.946041 456.063110 455.184762 454.432131 453.832194 453.407355 453.174429 453.143814 453.318866 453.695531 454.262226 455.000000 456.059955 457.218823 458.424912 459.624333 460.763315 461.790546 462.659459 463.330369 463.772371 463.964935 463.446679 462.711521 461.811738 460.806979 459.761242 458.739689 457.805437 457.016433 456.422568 456.063110 456.393374 456.960160 457.726175 458.643376 459.655462 460.700720 461.715088 462.635323 463.402139 463.963196 463.794045 463.387513 462.765039 461.957598 461.003953 459.948627 458.839677 457.726373 456.656858 455.675903 455.072411 454.606788 454.282561 454.096329 454.038311 454.093147 454.240919 454.458337 454.720047 455.000000 455.100732 455.186559 455.250894 455.289358 455.299814 455.282309 455.238933 455.173598 455.091745 455.000000 454.781961 454.578919 454.408636 454.287070 454.227277 454.238435 454.325020 454.486177 454.715324 455.000000 455.528963 456.054735 456.532394 456.915510 457.158372 457.218270 457.057735 456.646639 455.964087 455.000000 453.360961 451.490835 449.449037 447.303379 445.127339 442.997116 440.988587 439.174259 437.620348 436.384079 435.746130 435.483431 435.595082 436.067190 436.873658 437.977390 439.331850 440.882926 442.571027 444.333344 445.974556 447.576519 449.090951 450.473711 451.686060 452.695750 453.477913 454.015718 454.300786 454.333344 453.931988 453.319044 452.534188 451.621678 450.628273 449.601107 448.585591 447.623427 446.750800 445.996826 445.610345 445.355691 445.216506 445.169201 445.184453 445.228928 445.267182 445.263639 445.184577 445.000031 444.360014 443.600818 442.739152 441.797089 440.800924 439.779870 438.764651 437.786048 436.873456 436.053513 435.498221 435.062542 434.746294 434.544547 434.448027 434.443704 434.515521 434.645234 434.813333 435.000000 435.034311 435.063813 435.085380 435.097279 435.099020 435.091171 435.075149 435.052983 435.027082 435.000000 434.969038 434.941878 434.920795 434.907504 434.903058 434.907779 434.921253 434.942361 434.969360 435.000000 434.957426 434.919446 434.889235 434.869354 434.861578 434.866768 434.884800 434.914550 434.953931 435.000000 435.073187 435.143577 435.204782 435.250673 435.275813 435.275890 435.248124 435.191625 435.107688 435.000000 434.683801 434.374723 434.099146 433.883456 433.752714 433.729333 433.831848 434.073809 434.462854 435.000000 435.827705 436.771497 437.798989 438.872697 439.951480 440.992136 441.951106 442.786220 443.458411 443.933350 443.967775 443.774990 443.360023 442.734666 441.916814 440.929617 439.800500 438.560067 437.240948 435.876617 434.539060 433.217362 431.937817 430.723900 429.595695 428.569464 427.657364 426.867299 426.202936 425.663849 425.190367 424.835267 424.592378 424.452547 424.404014 424.432872 424.523601 424.659644 424.824031 425.000015 425.131053 425.247049 425.338803 425.399146 425.423176 425.408412 425.354893 425.265205 425.144427 425.000015 424.747429 424.500175 424.278931 424.104518 423.996968 423.974618 424.053263 424.245405 424.559611 425.000015 425.574576 426.268251 427.069899 427.963777 428.929956 429.944899 430.982175 432.013304 433.008694 433.938644 434.774111 435.489357 436.060431 436.467190 436.694172 436.731348 436.574719 436.226744 435.696561 435.000000 433.880175 432.667505 431.418132 430.189612 429.038374 428.017226 427.172974 426.544281 426.159818 426.036804 426.545565 427.281666 428.194604 429.225505 430.310060 431.381679 432.374751 433.227881 433.886958 434.307953 433.927970 433.306611 432.484775 431.513676 430.452154 429.363696 428.313295 427.364264 426.575140 425.996796 426.057328 426.363889 426.900047 427.638895 428.544581 429.574195 430.679928 431.811404 432.918099 433.951752 434.510566 434.946834 435.260411 435.456913 435.546975 435.545340 435.469809 435.340121 435.176797 435.000000