New loadshape.LS_PhaseA npts=17280 sinterval=5 pmult=(314.352753 314.320426 314.290552 314.264650 314.244019 314.229689 314.222384 314.222499 314.230087 314.244869 314.266248 314.293341 314.325029 314.311896 314.303484 314.301046 314.305601 314.317886 314.338325 314.367013 314.403710 314.447851 314.498573 314.554748 314.615032 314.628699 314.646315 314.669074 314.697959 314.733704 314.776750 314.827234 314.884971 314.949469 315.019943 315.095350 315.174435 315.207335 315.243864 315.285235 315.332448 315.386241 315.447055 315.515014 315.589917 315.671248 315.758191 315.849670 315.944392 315.991927 316.042615 316.097667 316.158077 316.224578 316.297610 316.377291 316.463419 316.555474 316.652639 316.753835 316.857768 316.914042 316.972957 317.035720 317.103323 317.176496 317.255676 317.340981 317.432206 317.528831 317.630037 317.734746 317.841663 317.900424 317.961294 318.025479 318.093971 318.167497 318.246495 318.331082 318.421053 318.515888 318.614769 318.716620 318.820147 318.875456 318.932321 318.991922 319.055227 319.122948 319.195503 319.273004 319.355242 319.441700 319.531573 319.623802 319.717118 319.760257 319.804510 319.851178 319.901346 319.955830 320.015141 320.079459 320.148623 320.222136 320.299178 320.378643 320.459183 320.492367 320.526220 320.561694 320.599510 320.640122 320.683687 320.730056 320.778772 320.829089 320.879993 320.930250 320.978455 320.972286 320.964012 320.954987 320.946395 320.939197 320.934091 320.931482 320.931471 320.933850 320.938119 320.943507 320.949016 320.906708 320.864821 320.824651 320.787250 320.753383 320.723497 320.697704 320.675776 320.657154 320.640977 320.626117 320.611231 320.545263 320.479143 320.414084 320.351090 320.290915 320.234026 320.180582 320.130431 320.083108 320.037864 319.993695 319.949384 319.855563 319.761632 319.668829 319.578178 319.490444 319.406102 319.325312 319.247915 319.173440 319.101126 319.029953 318.958690 318.837658 318.716559 318.596633 318.478906 318.364148 318.252835 318.145133 318.040890 317.939640 317.840631 317.742851 317.645079 317.497812 317.350590 317.204655 317.061033 316.920497 316.783527 316.650293 316.520648 316.394133 316.270002 316.147254 316.024676 315.852967 315.681479 315.511452 315.343917 315.179644 315.019117 314.862510 314.709680 314.560176 314.413259 314.267935 314.123002 313.929401 313.736253 313.544795 313.356054 313.170802 312.989523 312.812394 312.639276 312.469723 312.303003 312.138133 311.973920 311.761482 311.549779 311.340052 311.133332 310.930395 310.731729 310.537516 310.347623 310.161611 309.978754 309.798072 309.618380 309.391182 309.165038 308.941167 308.720582 308.504038 308.292008 308.084658 307.881846 307.683122 307.487759 307.294778 307.102997 306.864011 306.626311 306.391129 306.159494 305.932183 305.709690 305.492209 305.279623 305.071514 304.867180 304.665672 304.465834 304.219740 303.975420 303.734100 303.496795 303.264270 303.037008 302.815187 302.598677 302.387046 302.179582 301.975323 301.773106 301.525145 301.279310 301.036814 300.798667 300.565628 300.338176 300.116490 299.900445 299.689613 299.483292 299.280530 299.080176 298.834799 298.591919 298.352741 298.118268 297.889254 297.666176 297.449209 297.238226 297.032803 296.832237 296.635582 296.441688 296.203389 295.967936 295.736526 295.510153 295.289567 295.075238 294.867339 294.665744 294.470026 294.279486 294.093180 293.909965 293.682947 293.459096 293.239601 293.025449 292.817380 292.615860 292.421061 292.232851 292.050806 291.874226 291.702172 291.533503 291.321584 291.113119 290.909286 290.711063 290.519183 290.334107 290.156002 289.984734 289.819878 289.660735 289.506366 289.355633 289.162043 288.972153 288.787139 288.607974 288.435391 288.269847 288.111507 287.960236 287.815605 287.676915 287.543223 287.413388 287.241479 287.073447 286.910427 286.753357 286.602936 286.459596 286.323478 286.194435 286.072033 285.955574 285.844129 285.736578 285.586526 285.440481 285.299655 285.165064 285.037489 284.917440 284.805136 284.700497 284.603147 284.512437 284.427468 284.347137 284.226175 284.109870 283.999330 283.895453 283.798893 283.710026 283.628933 283.555399 283.488918 283.428718 283.373789 283.322932 283.230001 283.141066 283.057243 282.979454 282.908394 282.844494 282.787902 282.738480 282.695805 282.659188 282.627708 282.600248 282.531557 282.466905 282.407420 282.354030 282.307429 282.268039 282.235994 282.211136 282.193019 282.180927 282.173911 282.170824 282.126141 282.085363 282.049605 282.019788 281.996596 281.980450 281.971479 281.969527 281.974147 281.984630 282.000026 282.019197 281.996797 281.978143 281.964345 281.956321 281.954751 281.960052 281.972353 281.991492 282.017024 282.048235 282.084178 282.123710 282.121532 282.122908 282.128945 282.140559 282.158427 282.182963 282.214295 282.252261 282.296412 282.346035 282.400181 282.457707 282.473331 282.492294 282.515702 282.544467 282.579268 282.620515 282.668338 282.722571 282.782767 282.848211 282.917953 282.990850 283.022065 283.056366 283.094833 283.138354 283.187587 283.242927 283.304490 283.372109 283.445338 283.523469 283.605571 283.690520 283.731987 283.776378 283.824897 283.878552 283.938110 284.004058 284.076585 284.155568 284.240575 284.330885 284.425509 284.523239 284.580568 284.640620 284.704238 284.772052 284.844451 284.921556 285.003209 285.088978 285.178171 285.269857 285.362911 285.456055 285.501615 285.547236 285.594178 285.643550 285.696264 285.752996 285.814163 285.879903 285.950076 286.024277 286.101852 286.181937 286.221213 286.263324 286.309468 286.360616 286.417478 286.480471 286.549700 286.624960 286.705743 286.791262 286.880485 286.972182 287.019586 287.069334 287.122536 287.180118 287.242773 287.310935 287.384757 287.464106 287.548564 287.637450 287.729851 287.824657 287.876586 287.930936 287.988846 288.051259 288.118883 288.192154 288.271222 288.355943 288.445882 288.540338 288.638370 288.738838 288.795848 288.855286 288.918296 288.985824 289.058579 289.137000 289.221238 289.311146 289.406290 289.505966 289.609228 289.714935 289.777043 289.841585 289.909709 289.982364 290.060260 290.143837 290.233246 290.328340 290.428682 290.533564 290.642039 290.752960 290.820125 290.889724 290.962905 291.040621 291.123583 291.212231 291.306716 291.406890 291.512313 291.622273 291.735818 291.851797 291.923535 291.997706 292.075482 292.157831 292.245481 292.338883 292.438194 292.543266 292.653655 292.768640 292.887252 293.008317 293.086006 293.166044 293.249519 293.337320 293.430101 293.528249 293.631871 293.740786 293.854537 293.972409 294.093463 294.216582 294.293792 294.373273 294.456365 294.544219 294.637750 294.737602 294.844116 294.957323 295.076942 295.202397 295.332841 295.467194 295.560143 295.656963 295.758708 295.866205 295.980009 296.100382 296.227271 296.360312 296.498840 296.641914 296.788354 296.936792 297.038701 297.142320 297.248754 297.358926 297.473534 297.593019 297.717542 297.846974 297.980901 298.118640 298.259269 298.401662 298.499449 298.599028 298.701564 298.808019 298.919104 299.035249 299.156583 299.282928 299.413803 299.548449 299.685857 299.824814 299.917710 300.012081 300.109078 300.209654 300.314515 300.424091 300.538512 300.657606 300.780905 300.907658 301.036873 301.167350 301.251693 301.337242 301.425152 301.516377 301.611626 301.711328 301.815616 301.924318 302.036963 302.152802 302.270838 302.389873 302.462412 302.535896 302.611482 302.690128 302.772544 302.859163 302.950119 303.045239 303.144055 303.245816 303.349526 303.453986 303.511623 303.569961 303.630162 303.693186 303.759747 303.830279 303.904920 303.983498 304.065545 304.150314 304.236808 304.323828 304.364204 304.405041 304.447479 304.492458 304.540674 304.592549 304.648212 304.707490 304.769919 304.834763 304.901044 304.967588 304.985710 305.004187 305.024289 305.047080 305.073367 305.103671 305.138193 305.176811 305.219079 305.264245 305.311284 305.358935 305.361411 305.364138 305.368021 305.373746 305.381742 305.392155 305.404845 305.419377 305.435044 305.450889 305.465750 305.478302 305.438625 305.396647 305.353695 305.310940 305.269341 305.229611 305.192189 305.157221 305.124565 305.093797 305.064237 305.034985 304.960651 304.887000 304.815296 304.746570 304.681577 304.620767 304.564268 304.511880 304.463092 304.417098 304.372841 304.329056 304.237029 304.145395 304.055333 303.967822 303.883604 303.803145 303.726621 303.653909 303.584593 303.517980 303.453138 303.388931 303.278342 303.168467 303.060507 302.955459 302.854075 302.756827 302.663888 302.575126 302.490111 302.408134 302.328242 302.249278 302.123829 301.999367 301.877094 301.758008 301.642860 301.532122 301.425969 301.324271 301.226600 301.132251 301.040272 300.949511 300.812658 300.677085 300.543994 300.414380 300.288993 300.168307 300.052496 299.941431 299.834685 299.731555 299.631092 299.532147 299.387526 299.244487 299.104228 298.967742 298.835778 298.708807 298.587003 298.470237 298.358083 298.249838 298.144557 298.041092 297.892186 297.745170 297.601248 297.461420 297.326440 297.196784 297.072629 296.953845 296.840007 296.730409 296.624099 296.519921 296.371373 296.224966 296.081849 295.942966 295.809022 295.680450 295.557396 295.439710 295.326957 295.218441 295.113232 295.010213 294.861810 294.715794 294.573459 294.435904 294.303990 294.178300 294.059122 293.946436 293.839917 293.738952 293.642672 293.549988 293.415198 293.284047 293.157645 293.036888 292.922408 292.814553 292.713366 292.618584 292.529645 292.445719 292.365733 292.288426 292.166372 292.046882 291.931090 291.819941 291.714152 291.614175 291.520179 291.432045 291.349367 291.271470 291.197443 291.126178 291.011803 290.900261 290.792714 290.690124 290.593207 290.502405 290.417866 290.339435 290.266666 290.198839 290.134991 290.073963 289.969353 289.867563 289.769739 289.676830 289.589542 289.508311 289.433283 289.364306 289.300937 289.242464 289.187936 289.136202 289.041209 288.949014 288.860756 288.777377 288.699578 288.627792 288.562159 288.502525 288.448448 288.399212 288.353867 288.311264 288.225490 288.142453 288.063288 287.988928 287.920071 287.857144 287.800286 287.749340 287.703862 287.663137 287.626213 287.591945 287.514556 287.439810 287.368836 287.302563 287.241683 287.186621 287.137511 287.094196 287.056230 287.022900 286.993254 286.966147 286.896189 286.828740 286.764908 286.705605 286.651508 286.603029 286.560294 286.523143 286.491131 286.463550 286.439459 286.417726 286.352274 286.289230 286.229765 286.174854 286.125230 286.081354 286.043391 286.011205 285.984358 285.962136 285.943568 285.927477 285.869519 285.813829 285.761371 285.712903 285.668947 285.629754 285.595295 285.565260 285.539068 285.515886 285.494672 285.474213 285.407997 285.342524 285.278984 285.218399 285.161580 285.109086 285.061207 285.017952 284.979048 284.943959 284.911908 284.881917 284.810079 284.740484 284.674284 284.612420 284.555584 284.504190 284.458352 284.417886 284.382316 284.350893 284.322632 284.296353 284.226402 284.158361 284.093330 284.032221 283.975712 283.924225 283.877901 283.836595 283.799883 283.767079 283.737268 283.709342 283.638659 283.569871 283.504090 283.442231 283.384980 283.332757 283.285701 283.243663 283.206210 283.172648 283.142050 283.113298 283.041596 282.971738 282.904831 282.841791 282.783301 282.729782 282.681372 282.637922 282.599002 282.563920 282.531752 282.501383 282.428129 282.356674 282.288122 282.223387 282.163151 282.107834 282.057574 282.012224 281.971356 281.934278 281.900071 281.867621 281.792362 281.718861 281.648223 281.581358 281.518948 281.461412 281.408890 281.361233 281.318015 281.278549 281.241916 281.207008 281.129363 281.053446 280.980358 280.911009 280.846081 280.785991 280.730879 280.680600 280.634727 280.592576 280.553231 280.515587 280.435330 280.356775 280.281018 280.208967 280.141298 280.078427 280.020492 279.967349 279.918573 279.873481 279.831162 279.790516 279.707291 279.625751 279.546999 279.471946 279.401276 279.335413 279.274502 279.218405 279.166705 279.118727 279.073563 279.030121 278.944353 278.860313 278.779092 278.701590 278.628480 278.560172 278.496801 278.438217 278.383996 278.333452 278.285673 278.239560 278.151101 278.064309 277.980275 277.899901 277.823860 277.752570 277.686172 277.624523 277.567209 277.513555 277.462660 277.413436 277.322067 277.232381 277.145469 277.062231 276.983342 276.909217 276.839995 276.775537 276.715425 276.658986 276.605320 276.553340 276.459326 276.367010 276.277478 276.191631 276.110138 276.033417 275.961608 275.894571 275.831891 275.772898 275.716697 275.662205 275.565841 275.471200 275.379367 275.291238 275.207485 275.128522 275.054490 274.985250 274.920391 274.859244 274.800918 274.744334 274.646041 274.549507 274.455812 274.365852 274.280296 274.199560 274.123783 274.052830 273.986288 273.923495 273.863561 273.805411 273.705725 273.607841 273.512839 273.421612 273.334828 273.252902 273.175974 273.103908 273.036297 272.972478 272.911566 272.852491 272.752234 272.653825 272.558328 272.466628 272.379382 272.296998 272.219614 272.147093 272.079031 272.014770 271.953435 271.893969 271.792915 271.693798 271.597728 271.505634 271.418213 271.335909 271.258886 271.187027 271.119933 271.056944 270.997169 270.939518 270.841767 270.746034 270.653286 270.564304 270.479638 270.399588 270.324186 270.253194 270.186117 270.122216 270.060547 270.000000 269.896888 269.794928 269.695245 269.598798 269.506340 269.418383 269.335179 269.256711 269.182696 269.112602 269.045668 268.980949 268.876579 268.774587 268.676072 268.581937 268.492853 268.409230 268.331200 268.258614 268.191047 268.127823 268.068037 268.010604 267.912473 267.816683 267.724295 267.636190 267.553030 267.475231 267.402941 267.336038 267.274134 267.216593 267.162559 267.110998 267.019566 266.930646 266.845307 266.764434 266.688689 266.618488 266.553977 266.495029 266.441249 266.391995 266.346403 266.303426 266.220619 266.140457 266.064004 265.992144 265.925537 265.864597 265.809469 265.760023 265.715867 265.676356 265.640627 265.607635 265.534997 265.465121 265.399068 265.337717 265.281729 265.231512 265.187212 265.148698 265.115575 265.087199 265.062706 265.041050 264.979901 264.921609 264.867232 264.817647 264.773511 264.735232 264.702952 264.676539 264.655598 264.639481 264.627325 264.618083 264.569463 264.523770 264.482060 264.445206 264.413863 264.388436 264.369065 264.355617 264.347693 264.344646 264.345609 264.349535 264.314150 264.281735 264.253343 264.229845 264.211893 264.199891 264.193976 264.194013 264.199601 264.210092 264.224615 264.242121 264.220355 264.201572 264.186819 264.176965 264.172657 264.174297 264.182016 264.195678 264.214879 264.238965 264.267065 264.298126 264.289874 264.284577 264.283282 264.286856 264.295947 264.310953 264.332009 264.358975 264.391446 264.428770 264.470073 264.514301 264.519175 264.526961 264.538706 264.555273 264.577307 264.605204 264.639095 264.678837 264.724022 264.773993 264.827872 264.884601 264.901858 264.921944 264.945903 264.974597 265.008670 265.048516 265.094264 265.145767 265.202617 265.264154 265.329497 265.397585 265.426057 265.457249 265.492202 265.531779 265.576620 265.627119 265.683402 265.745323 265.812467 265.884174 265.959560 266.037560 266.075757 266.116538 266.160944 266.209835 266.263853 266.323389 266.388567 266.459240 266.534992 266.615158 266.698852 266.785008 266.831144 266.879705 266.931734 266.988090 267.049413 267.116095 267.188259 267.265755 267.348166 267.434824 267.524843 267.617150 267.669197 267.723494 267.781084 267.842826 267.909363 267.981083 268.058109 268.140292 268.227211 268.318199 268.412364 268.508633 268.564480 268.622385 268.683386 268.748340 268.817883 268.892403 268.972019 269.056579 269.145663 269.238604 269.334512 269.432316 269.489102 269.547769 269.609383 269.674827 269.744762 269.819594 269.899459 269.984215 270.073444 270.166472 270.262399 270.360133 270.417298 270.476157 270.537701 270.602734 270.671838 270.745342 270.823309 270.905529 270.991531 271.080595 271.171789 271.264008 271.313925 271.364831 271.417807 271.473762 271.533389 271.597138 271.665195 271.737473 271.813618 271.893022 271.974853 272.058094 272.100297 272.143950 272.190125 272.239703 272.293334 272.351415 272.414066 272.481127 272.552165 272.626492 272.703195 272.781178 272.817213 272.854476 272.894020 272.936719 272.983222 273.033930 273.088975 273.148214 273.211233 273.277369 273.345735 273.415259 273.443001 273.471886 273.502976 273.537149 273.575062 273.617116 273.663446 273.713906 273.768081 273.825305 273.884685 273.945145 273.963592 273.983104 274.004745 274.029398 274.057720 274.090117 274.126724 274.167397 274.211725 274.259039 274.308450 274.358882 274.367200 274.376529 274.387938 274.402311 274.420308 274.442338 274.468538 274.498766 274.532611 274.569407 274.608267 274.648115 274.645785 274.644439 274.645149 274.648802 274.656061 274.667337 274.682769 274.702217 274.725273 274.751272 274.779328 274.808367 274.795363 274.783336 274.773351 274.766288 274.762808 274.763317 274.767952 274.776574 274.788778 274.803904 274.821073 274.839223 274.814790 274.791390 274.770132 274.751944 274.737526 274.727318 274.721486 274.719909 274.722189 274.727662 274.735432 274.744408 274.712050 274.680790 274.651614 274.625313 274.602455 274.583350 274.568043 274.556304 274.547643 274.541324 274.536404 274.531769 274.483422 274.435385 274.388790 274.344603 274.303577 274.266224 274.232792 274.203257 274.177328 274.154459 274.133876 274.114616 274.054278 273.995418 273.939145 273.886378 273.837796 273.793820 273.754588 273.719955 273.689499 273.662540 273.638171 273.615299 273.550352 273.486896 273.426013 273.368601 273.315337 273.266646 273.222685 273.183333 273.148203 273.116653 273.087821 273.060660 272.992186 272.925431 272.861485 272.801250 272.745408 272.694384 272.648334 272.607135 272.570392 272.537460 272.507466 272.479355 272.409994 272.342555 272.278128 272.217617 272.161701 272.110807 272.065088 272.024423 271.988417 271.956423 271.927571 271.900803 271.833006 271.767333 271.704871 271.646525 271.592972 271.544638 271.501677 271.463966 271.431109 271.402459 271.377144 271.354108 271.290251 271.228710 271.170571 271.116734 271.067878 271.024426 270.986531 270.954068 270.926641 270.903601 270.884076 270.867008 270.809308 270.754096 270.702459 270.655295 270.613280 270.576837 270.546116 270.520991 270.501065 270.485685 270.473979 270.464887 270.415331 270.368415 270.325221 270.286646 270.253362 270.225789 270.204075 270.188092 270.177441 270.171467 270.169294 270.169861 270.130076 270.093054 270.059875 270.031436 270.008409 269.991213 269.979995 269.974626 269.974705 269.979577 269.988363 270.000000 269.971405 269.945674 269.923884 269.906925 269.895464 269.889916 269.890422 269.896847 269.908783 269.925571 269.946327 269.969981 269.953410 269.939742 269.930050 269.925224 269.925930 269.932580 269.945314 269.963996 269.988218 270.017319 270.050412 270.086427 270.082228 270.080950 270.083664 270.091258 270.104395 270.123484 270.148662 270.179791 270.216457 270.257996 270.303517 270.351945 270.360098 270.371147 270.386163 270.406031 270.431411 270.462709 270.500061 270.543324 270.592082 270.645666 270.703183 270.763554 270.783551 270.806384 270.833120 270.864643 270.901610 270.944426 270.993224 271.047858 271.107908 271.172702 271.241344 271.312748 271.343633 271.377257 271.414686 271.456801 271.504258 271.557460 271.616537 271.681339 271.751446 271.826181 271.904643 271.985744 272.026139 272.069143 272.115820 272.167051 272.223490 272.285537 272.353322 272.426692 272.505223 272.588236 272.674825 272.763900 272.812164 272.862871 272.917078 272.975659 273.039262 273.108283 273.182845 273.262793 273.347702 273.436890 273.529454 273.624306 273.677699 273.733370 273.792408 273.855718 273.923974 273.997594 274.076719 274.161204 274.250625 274.344294 274.441292 274.540503 274.598850 274.659280 274.722790 274.790185 274.862044 274.938689 275.020171 275.106263 275.196472 275.290056 275.386056 275.483337 275.537695 275.593292 275.651234 275.712450 275.777652 275.847306 275.921608 276.000479 276.083567 276.170262 276.259726 276.350929 276.400740 276.452339 276.506813 276.565057 276.627732 276.695234 276.767682 276.844905 276.926455 277.011623 277.099473 277.188878 277.235783 277.284174 277.335119 277.389500 277.447974 277.510942 277.578534 277.650599 277.726711 277.806190 277.888127 277.971426 278.012391 278.054689 278.099395 278.147398 278.199357 278.255678 278.316487 278.381631 278.450682 278.522952 278.597526 278.673303 278.706413 278.740692 278.777217 278.816878 278.860336 278.907997 278.959990 279.016162 279.076084 279.139069 279.204204 279.270386 279.293709 279.318050 279.344487 279.373911 279.406987 279.444120 279.485441 279.530798 279.579763 279.631651 279.685548 279.740353 279.752138 279.764805 279.779435 279.796921 279.817929 279.842867 279.871866 279.904775 279.941170 279.980365 280.021448 280.063318 280.062118 280.061681 280.063087 280.067226 280.074763 280.086104 280.101381 280.120446 280.142873 280.167981 280.194864 280.222426 280.206580 280.191420 280.178046 280.167371 280.160077 280.156589 280.157052 280.161325 280.168990 280.179365 280.191536 280.204397 280.174359 280.144950 280.117211 280.091995 280.069923 280.051362 280.036402 280.024854 280.016259 280.009904 280.004855 280.000000 279.951126 279.902447 279.855075 279.809942 279.767756 279.728976 279.693787 279.662097 279.633540 279.607491 279.583098 279.559320 279.492736 279.426834 279.362714 279.301286 279.243229 279.188957 279.138608 279.092035 279.048815 279.008264 278.969473 278.931344 278.849992 278.769301 278.690359 278.614067 278.541101 278.471880 278.406552 278.344984 278.286769 278.231247 278.177530 278.124546 278.028772 277.933761 277.840604 277.750205 277.663242 277.580137 277.501037 277.425811 277.354053 277.285101 277.218070 277.151888 277.043064 276.935122 276.829151 276.726054 276.626511 276.530944 276.439502 276.352055 276.268200 276.187282 276.108416 276.030538 275.910282 275.791050 275.673932 275.559831 275.449424 275.343136 275.241115 275.143236 275.049097 274.958046 274.869205 274.781513 274.651741 274.523159 274.396856 274.273733 274.154468 274.039483 273.928931 273.822685 273.720350 273.621274 273.524585 273.429226 273.292228 273.156600 273.023421 272.893585 272.767763 272.646375 272.529570 272.417222 272.308939 272.204076 272.101768 272.000969 271.858491 271.717601 271.579408 271.444832 271.314571 271.189066 271.068487 270.952719 270.841375 270.733810 270.629150 270.526330 270.383040 270.241557 270.102894 269.967873 269.837096 269.710909 269.589394 269.472361 269.359357 269.249688 269.142448 269.036560 268.888834 268.742516 268.598718 268.458382 268.322236 268.190766 268.064196 267.942480 267.825308 267.712118 267.602127 267.494365 267.346910 267.201827 267.060210 266.922961 266.790755 266.664009 266.542869 266.427202 266.316605 266.210423 266.107779 266.007616 265.867310 265.729509 265.595282 265.465513 265.340869 265.221770 265.108373 265.000560 264.897952 264.799922 264.705626 264.614039 264.483068 264.354865 264.230496 264.110848 263.996587 263.888130 263.785630 263.688968 263.597759 263.511372 263.428956 263.349481 263.230851 263.115208 263.003618 262.896960 262.795898 262.700847 262.611956 262.529105 262.451909 262.379735 262.311734 262.246875 262.143157 262.042623 261.946330 261.855156 261.769758 261.690550 261.617677 261.551019 261.490186 261.434548 261.383251 261.335267 261.248672 261.165422 261.086570 261.012989 260.945334 260.884014 260.829172 260.780683 260.738158 260.700963 260.668244 260.638970 260.571287 260.507072 260.447373 260.393060 260.344781 260.302942 260.267684 260.238878 260.216133 260.198812 260.186060 260.176843 260.129312 260.085334 260.045955 260.012041 259.984243 259.962963 259.948339 259.940243 259.938278 259.941806 259.949967 259.961723 259.935298 259.912466 259.894260 259.881536 259.874932 259.874838 259.881383 259.894427 259.913567 259.938154 259.967323 260.000031 259.994403 259.992309 259.994788 260.002703 260.016699 260.037177 260.064273 260.097856 260.137531 260.182658 260.232377 260.285651 260.300666 260.319227 260.342371 260.370952 260.405610 260.446736 260.494457 260.548631 260.608852 260.674465 260.744601 260.818208 260.853345 260.891926 260.934982 260.983366 261.037714 261.098415 261.165594 261.239107 261.318547 261.403257 261.492364 261.584816 261.638630 261.695754 261.757221 261.823881 261.896368 261.975070 262.060109 262.151338 262.248345 262.350469 262.456832 262.566375 262.637011 262.710784 262.788726 262.871688 262.960301 263.054952 263.155761 263.262578 263.374986 263.492323 263.613705 263.738066 263.823209 263.911282 264.003318 264.100166 264.202460 264.310583 264.424654 264.544521 264.669764 264.799715 264.933487 265.070010 265.166958 265.266602 265.369975 265.477927 265.591092 265.709852 265.834326 265.964358 266.099526 266.239159 266.382366 266.528071 266.633915 266.742194 266.853934 266.969983 267.090970 267.217274 267.349011 267.486022 267.627883 267.773923 267.923249 268.074787 268.185695 268.298783 268.415107 268.535546 268.660754 268.791133 268.926813 269.067646 269.213210 269.362825 269.515585 269.670389 269.784913 269.901342 270.020654 270.143642 270.270876 270.402673 270.539085 270.679891 270.824607 270.972504 271.122639 271.273895 271.382852 271.492872 271.605032 271.720239 271.839183 271.962314 272.089814 272.221594 272.357298 272.496314 272.637807 272.780752 272.882609 272.985942 273.091818 273.201115 273.314479 273.432299 273.554690 273.681481 273.812230 273.946238 274.082578 274.220141 274.315474 274.411951 274.510622 274.612356 274.717800 274.827349 274.941127 275.058984 275.180497 275.304991 275.431566 275.559139 275.644498 275.730814 275.819148 275.910376 276.005150 276.103867 276.206656 276.313361 276.423558 276.536567 276.651481 276.767209 276.840315 276.914193 276.989910 277.068346 277.150157 277.235744 277.325235 277.418478 277.515049 277.614267 277.715226 277.816834 277.875554 277.934888 277.995907 278.059494 278.126309 278.196756 278.270965 278.348786 278.429797 278.513316 278.598439 278.684073 278.726599 278.769607 278.814173 278.861185 278.911306 278.964942 279.022225 279.083009 279.146870 279.213131 279.280887 279.349045 279.374080 279.399489 279.426341 279.455521 279.487688 279.523244 279.562323 279.604777 279.650185 279.697876 279.746949 279.796324 279.801936 279.807878 279.815265 279.825024 279.837853 279.854190 279.874194 279.897735 279.924401 279.953513 279.984159 280.015226 280.003615 279.992308 279.982298 279.974387 279.969147 279.966892 279.967667 279.971237 279.977103 279.984521 279.992530 280.000000 279.962446 279.924361 279.886882 279.850974 279.817388 279.786630 279.758937 279.734273 279.712329 279.692540 279.674110 279.656051 279.595421 279.535298 279.476798 279.420840 279.368108 279.319018 279.273705 279.232019 279.193525 279.157534 279.123123 279.089186 279.011699 278.934672 278.859190 278.786156 278.716249 278.649890 278.587233 278.528151 278.472245 278.418862 278.367124 278.315970 278.221999 278.128653 278.037024 277.948021 277.862325 277.780359 277.702276 277.627947 277.556969 277.488685 277.422213 277.356484 277.248034 277.140365 277.034570 276.931553 276.831995 276.736321 276.644682 276.556951 276.472727 276.391355 276.311955 276.233462 276.112530 275.992547 275.874601 275.759596 275.648211 275.540870 275.437724 275.338646 275.243236 275.150843 275.060587 274.971409 274.840099 274.709909 274.581924 274.457046 274.335951 274.219061 274.106527 273.998221 273.893746 273.792450 273.693460 273.595717 273.456113 273.317802 273.181869 273.049213 272.920511 272.796184 272.676383 272.560981 272.449580 272.341531 272.235960 272.131809 271.986310 271.842259 271.700722 271.562580 271.428494 271.298873 271.173856 271.053311 270.936841 270.823798 270.713317 270.604355 270.453991 270.305225 270.159158 270.016713 269.878588 269.745231 269.616822 269.493264 269.374188 269.258974 269.146776 269.036560 268.886073 268.737606 268.592205 268.450732 268.313821 268.181852 268.054937 267.932912 267.815345 267.701557 267.590648 267.481541 267.331670 267.183593 267.038361 266.896844 266.759694 266.627321 266.499869 266.377212 266.258963 266.144487 266.032931 265.923265 265.773516 265.625699 265.480865 265.339887 265.203415 265.071850 264.945331 264.823723 264.706628 264.593400 264.483177 264.374916 264.226673 264.080414 263.937183 263.797842 263.663037 263.533166 263.408363 263.288497 263.173170 263.061742 262.953356 262.846976 262.700929 262.556911 262.415957 262.278924 262.146452 262.018937 261.896512 261.779043 261.666134 261.557147 261.451227 261.347344 261.204042 261.062796 260.924636 260.790411 260.660758 260.536069 260.416475 260.301842 260.191775 260.085638 259.982580 259.881574 259.741385 259.603265 259.468237 259.337147 259.210626 259.089063 258.972589 258.861068 258.754107 258.651073 258.551118 258.453221 258.316542 258.181926 258.050379 257.922732 257.799605 257.681376 257.568170 257.459852 257.356031 257.256078 257.159158 257.064262 256.930176 256.798178 256.669316 256.544466 256.424286 256.309190 256.199330 256.094588 255.994582 255.898680 255.806028 255.715589 255.587511 255.461523 255.338523 255.219230 255.104145 254.993534 254.887409 254.785527 254.687403 254.592325 254.499387 254.407532 254.275461 254.144491 254.015681 253.889936 253.767964 253.650252 253.537041 253.428318 253.323821 253.223053 253.125303 253.029682 252.896875 252.766356 252.639156 252.516118 252.397867 252.284779 252.176971 252.074293 251.976336 251.882453 251.791784 251.703300 251.576526 251.451912 251.330446 251.212949 251.100035 250.992086 250.889236 250.791363 250.698099 250.608840 250.522781 250.438945 250.317677 250.198666 250.082905 249.971217 249.864218 249.762289 249.665563 249.573913 249.486966 249.404115 249.324546 249.247276 249.132620 249.020286 248.911264 248.806375 248.706230 248.611210 248.521447 248.436815 248.356942 248.281223 248.208847 248.138836 248.031652 247.926855 247.825429 247.728193 247.635755 247.548496 247.466546 247.389780 247.317827 247.250084 247.185743 247.123828 247.024938 246.928494 246.835479 246.746705 246.662783 246.584090 246.510753 246.442651 246.379413 246.