New loadshape.LS_PhaseA npts=1440 sinterval=60 pmult=(314.352753 314.325029 314.615032 315.174435 315.944392 316.857768 317.841663 318.820147 319.717118 320.459183 320.978455 320.949016 320.611231 319.949384 318.958690 317.645079 316.024676 314.123002 311.973920 309.618380 307.102997 304.465834 301.773106 299.080176 296.441688 293.909965 291.533503 289.355633 287.413388 285.736578 284.347137 283.322932 282.600248 282.170824 282.019197 282.123710 282.457707 282.990850 283.690520 284.523239 285.456055 286.181937 286.972182 287.824657 288.738838 289.714935 290.752960 291.851797 293.008317 294.216582 295.467194 296.936792 298.401662 299.824814 301.167350 302.389873 303.453986 304.323828 304.967588 305.358935 305.478302 305.034985 304.329056 303.388931 302.249278 300.949511 299.532147 298.041092 296.519921 295.010213 293.549988 292.288426 291.126178 290.073963 289.136202 288.311264 287.591945 286.966147 286.417726 285.927477 285.474213 284.881917 284.296353 283.709342 283.113298 282.501383 281.867621 281.207008 280.515587 279.790516 279.030121 278.239560 277.413436 276.553340 275.662205 274.744334 273.805411 272.852491 271.893969 270.939518 270.000000 268.980949 268.010604 267.110998 266.303426 265.607635 265.041050 264.618083 264.349535 264.242121 264.298126 264.514301 264.884601 265.397585 266.037560 266.785008 267.617150 268.508633 269.432316 270.360133 271.264008 272.058094 272.781178 273.415259 273.945145 274.358882 274.648115 274.808367 274.839223 274.744408 274.531769 274.114616 273.615299 273.060660 272.479355 271.900803 271.354108 270.867008 270.464887 270.169861 270.000000 269.969981 270.086427 270.351945 270.763554 271.312748 271.985744 272.763900 273.624306 274.540503 275.483337 276.350929 277.188878 277.971426 278.673303 279.270386 279.740353 280.063318 280.222426 280.204397 280.000000 279.559320 278.931344 278.124546 277.151888 276.030538 274.781513 273.429226 272.000969 270.526330 269.036560 267.494365 266.007616 264.614039 263.349481 262.246875 261.335267 260.638970 260.176843 259.961723 260.000031 260.285651 260.818208 261.584816 262.566375 263.738066 265.070010 266.528071 268.074787 269.670389 271.273895 272.780752 274.220141 275.559139 276.767209 277.816834 278.684073 279.349045 279.796324 280.015226 280.000000 279.656051 279.089186 278.315970 277.356484 276.233462 274.971409 273.595717 272.131809 270.604355 269.036560 267.481541 265.923265 264.374916 262.846976 261.347344 259.881574 258.453221 257.064262 255.715589 254.407532 253.029682 251.703300 250.438945 249.247276 248.138836 247.123828 246.211880 245.411817 244.731442 244.177338 243.714293 243.389546 243.208359 243.173838 243.286689 243.545033 243.944306 244.477237 245.133912 245.901932 246.740846 247.662117 248.649665 249.686012 250.752654 251.830481 252.900241 253.943039 254.940844 255.876999 256.715098 257.466605 258.123429 258.680245 259.134676 259.487386 259.742114 259.905611 259.987498 260.000031 259.768757 259.514723 259.271007 259.069465 258.939136 258.904735 258.985305 259.193072 259.532566 260.000031 260.773724 261.626375 262.513960 263.387367 264.194503 264.882553 265.400324 265.700572 265.742236 265.492493 264.627075 263.462146 262.022945 260.344418 258.469848 256.449238 254.337488 252.192449 250.072912 248.036606 246.270070 244.679649 243.298582 242.154014 241.266593 240.650291 240.312420 240.253853 240.469414 240.948425 241.533521 242.359396 243.414517 244.683336 246.146457 247.780880 249.560342 251.455732 253.435591 255.466690 257.495118 259.507073 261.469657 263.350842 265.120122 266.749179 268.212531 269.488147 270.558029 271.408722 272.002639 272.368473 272.510957 272.440181 272.171460 271.725099 271.126052 270.403479 269.590202 268.722076 267.661322 266.637960 265.706543 264.919501 264.325313 263.966793 263.879550 264.090691 264.617799 265.468231 266.828543 268.479385 270.381562 272.488547 274.748551 277.106772 279.507717 281.897544 284.226303 286.450012 288.159775 289.733032 291.183077 292.530097 293.799510 295.020123 296.222180 297.435385 298.686984 300.000000 301.633061 303.333785 305.085228 306.864740 308.645015 310.395374 312.083215 313.675585 315.140792 316.450012 317.288927 317.953689 318.455635 318.810629 319.038226 319.160748 319.202295 319.187740 319.141754 319.087891 319.164524 319.263597 319.391746 319.553502 319.751708 319.988022 320.263496 320.579188 320.936775 321.339142 321.530012 321.798887 322.175920 322.690998 323.372419 324.245607 325.331891 326.647439 328.202353 330.000000 332.227378 334.666352 337.283436 340.040599 342.896952 345.810558 348.740297 351.647697 354.498675 357.265106 359.613864 361.871527 364.059530 366.205101 368.339612 370.496761 372.710665 375.013918 377.435704 380.000031 382.768065 385.700144 388.793077 392.034547 395.402976 398.867728 402.389660 405.921996 409.411514 412.800018 416.086771 419.144083 421.904686 424.304602 426.285599 427.797557 428.800664 429.267343 429.183858 428.551514 427.027570 425.035254 422.652264 419.967213 417.076451 414.080644 411.081241 408.176935 405.460253 403.014374 401.080824 399.529905 398.388235 397.666801 397.361119 397.451904 397.906209 398.679010 399.715155 400.951630 402.243388 403.603801 404.967615 406.271198 407.454778 408.464561 409.254666 409.788811 410.041694 410.000031 409.328778 408.402070 407.271791 405.998245 404.647371 403.287813 401.987945 400.812974 399.822225 399.066711 398.927293 399.063555 399.463942 400.107152 400.963904 401.999004 403.173639 404.447786 405.782631 407.142883 407.986637 408.848018 409.754603 410.738036 411.831954 413.069799 414.482584 416.096732 417.932062 420.000031 422.526017 425.257065 428.154906 431.172416 434.255110 437.342958 440.372461 443.278923 445.998830 448.472260 450.427651 452.056125 453.339248 454.267875 454.842439 455.073000 454.979064 454.589174 453.940290 453.076965 451.966023 450.754968 449.511331 448.304484 447.203709 446.276288 445.585652 445.189650 445.138981 445.475830 446.208996 447.386152 449.020182 451.112356 453.652235 456.617877 459.976351 463.684545 467.690233 471.933380 476.223820 480.625054 485.073064 489.501343 493.842108 498.027573 501.991242 505.669230 509.001553 511.933380 514.373225 516.326696 517.764534 518.666186 519.020225 518.824619 518.086833 516.823760 515.061477 512.834839 510.051398 506.908522 503.474085 499.819949 496.020097 492.148773 488.278664 484.479178 480.814861 477.343994 474.084746 471.114831 468.470221 466.177029 464.251200 462.698485 461.514721 460.686372 460.191341 460.000000 459.941112 460.120705 460.505293 461.057976 461.739334 462.508391 463.323645 464.144121 464.930451 465.645935 466.289762 466.799212 467.148820 467.319724 467.300475 467.087676 466.686399 466.110385 465.381978 464.531799 463.179585 461.823472 460.547883 459.436949 458.570747 458.021679 457.851110 458.106407 458.818489 460.000000 462.068342 464.537107 467.326373 470.342767 473.483583 476.641292 479.708284 482.581648 485.167824 487.386932 488.543077 489.282934 489.638542 489.659429 489.410072 488.966860 488.414684 487.843286 487.343496 487.003510 487.117776 487.526506 488.273326 489.389851 490.894923 492.794301 495.080817 497.734962 500.725891 504.012787 507.461874 511.110883 514.906605 518.792672 522.711432 526.605858 530.421439 534.107970 537.621198 540.924255 543.574693 546.001835 548.230114 550.289595 552.213651 554.036564 555.791178 557.506692 559.206706 560.907593 563.024763 565.114958 567.134946 569.036961 570.771598 572.290877 573.551389 574.517352 575.163466 575.477417 574.795464 573.860142 572.761206 571.598283 570.476852 569.503988 568.784001 568.414154 568.480608 569.054749 570.583596 572.672076 575.299776 578.427708 582.000160 585.947084 590.186960 594.630000 599.181593 603.745850 607.755581 611.637237 615.349177 618.855747 622.127158 625.139197 627.872799 630.313523 632.450981 634.278259 635.903948 637.203459 638.168538 638.794156 639.078927 639.025565 638.641360 637.938658 636.935295 635.654968 633.984951 632.116891 630.104397 628.005429 625.881229 623.795153 621.811441 619.993929 618.404741 617.102966 615.863010 615.037301 614.690824 614.877631 615.638398 616.998299 618.965313 621.529016 624.659928 628.309448 632.634838 637.308432 642.212114 647.217040 652.187681 656.986148 661.476655 665.529983 669.027804 671.866699 673.466724 674.302034 674.372695 673.698707 672.318349 670.286058 667.669935 664.548973 661.010119 657.145264 653.267917 649.232177 645.110155 640.970749 636.878773 632.894329 629.072401 625.462647 622.109360 619.051575 615.914222 613.170544 610.877843 609.084527 607.828281 607.134480 607.014923 607.466925 608.472835 610.000000 612.168119 614.735218 617.614846 620.712008 623.926242 627.154910 630.296598 633.254532 635.939868 638.274780 639.840355 640.974287 641.674784 641.955145 641.842629 641.376937 640.608382 639.595809 638.404330 637.102966 635.782808 634.490610 633.291499 632.245802 631.407291 630.821692 630.525469 630.544938 630.895698 631.582397 632.418990 633.584250 635.066119 636.841707 638.877587 641.130414 643.547875 646.069924 648.630297 651.158264 653.544810 655.755497 657.721086 659.375767 660.659145 661.518146 661.908817 661.797918 661.164303 660.000000 658.112139 655.737055 652.925200 649.738680 646.249453 642.537289 638.687535 634.788759 630.930333 627.200012 623.510378 620.123750 617.123402 614.580786 612.553093 611.081250 610.188416 609.879035 610.138488 610.933350 612.378038 614.225903 616.381315 618.738536 621.185588 623.608366 625.894841 627.939231 629.645979 630.933411 631.259780 631.098474 630.464292 629.389451 627.921601 626.121401 624.059723 621.814609 619.468089 617.102966 614.889262 612.803615 610.906346 609.248737 607.871579 606.804132 606.063516 605.654538 605.569964 605.791199 606.231344 606.916888 607.807265 608.855829 610.011699 611.221759 612.432729 613.593253 614.655912 615.579102 615.931713 616.118844 616.157045 616.069130 615.882471 615.627183 615.334279 615.033869 614.753495 614.516663 614.605535 614.745943 614.922276 615.115080 615.302626 615.462644 615.574151 615.619293 615.585102 615.465088 614.754990 614.013928 613.301887 612.682775 612.221629 611.981730 612.021743 612.392994 613.136978 614.283203 616.037085 618.192934 620.720889 623.577543 626.707333 630.044376 633.514672 637.038600 640.533636 643.917175 646.863488 649.566228 651.978697 654.061771 655.784711 657.125770 658.072581 658.622324 658.781663 658.566467 657.767736 656.670357 655.332937 653.817677 652.187951 650.505936 648.830383 647.214591 645.704680 644.338196 643.340650 642.516029 641.856028 641.344564 640.959532 640.674823 640.462504 640.295066 640.147636 640.000061 639.308375 638.642692 638.049194 637.578042 637.280910 637.208422 637.407572 637.919258 638.776016 640.000061 641.883556 644.117470 646.663055 649.471129 652.483967 655.637526 658.863920 662.094038 665.260222 668.298889 670.719531 672.944908 674.971925 676.804645 678.453139 679.932166 681.259740 682.455650 683.539994 684.531799 685.512769 686.424964 687.272441 688.055299 688.769674 689.407972 689.959319 690.410206 690.745307 690.948425 690.875043 690.650769 690.273251 689.741942 689.058443 688.226814 687.253852 686.149310 684.926037 683.600037 681.864460 680.094180 678.340123 676.651910 675.075648 673.651857 672.413593 671.384875 670.579453 670.000000 669.803907 669.790618 669.916087 670.128542 670.370843 670.583139 670.705687 670.681772 670.460590 670.000000 668.984622 667.706715 666.186226 664.456043 662.561273 660.558153 658.512596 656.498442 654.595430 652.886963 651.197710 649.891698 649.069726 648.823639 649.232562 650.359468 652.248224 654.921189 658.377493 662.592041 667.780120 673.581697 679.879704 686.539757 693.414452 700.348116 707.181875 713.758847 719.929300 725.555603 730.016418 733.755602 736.736656 738.943855 740.381449 741.072303 741.056057 740.386874 739.130875 737.363342 735.108993 732.512325 729.663492 726.649947 723.553559 720.448065 717.396923 714.451626 711.650544 709.018311 706.789137 704.719967 702.777956 700.921868 699.105251 697.279833 695.398983 693.421097 691.312763 689.051575 685.886340 682.627988 679.357928 676.165608 673.144276 670.386516 667.979738 666.001821 664.517064 663.572632 663.681425 664.320211 665.431845 666.941007 668.757238 670.778572 672.895615 674.995933 676.968582 678.708618 679.654314 680.234125 680.422400 680.208548 679.596878 678.605991 677.267773 675.626013 673.734711 671.656128 669.335328 666.976941 664.664792 662.480654 660.501293 658.795727 657.422776 656.428989 655.847015 655.694458 656.079734 656.874282 658.040484 659.527639 661.274059 663.209551 665.258182 667.341242 669.380289 671.300171 672.638188 673.762101 674.654210 675.305304 675.714108 675.886508 675.834582 675.575495 675.130311 674.522766 673.832113 673.024653 672.120967 671.140684 670.101984 669.021244 667.912821 666.788968 665.659885 664.533875 663.099025 661.705980 660.384682 659.160991 658.055460 657.082329 656.248786 655.554530 654.991672 654.544983 654.493100 654.483506 654.459588 654.364947 654.146745 653.759026 653.165844 652.344077 651.285796 650.000061 647.689725 645.294204 642.943273 640.774346 638.926222 637.532693 636.716224 636.581971 637.212367 638.662476 641.578609 645.275025 649.657799 654.605346 659.972907 665.597893 671.305881 676.917065 682.252925 687.142883 690.879494 693.927533 696.220079 697.713518 698.388228 698.248553 697.322114 695.658463 693.327166 690.415344 686.916900 683.060358 678.975760 674.796365 670.654283 666.676215 662.979414 659.668002 656.829746 654.533386 652.924477 651.922326 651.521338 651.694111 652.392821 653.551233 655.087283 656.906136 658.903619 660.969910 662.746122 664.392253 665.823919 666.963023 667.739730 668.094216 667.978153 667.355884 666.205281 664.518250 662.131212 659.247726 655.914963 652.190774 648.141588 643.840133 639.363078 634.788645 630.194286 625.654480 621.276758 617.082651 613.123613 609.442133 606.071128 603.033662 600.343007 598.002997 596.008673 594.347168 592.752006 591.466275 590.480058 589.777718 589.338054 589.134620 589.136173 589.307281 589.609063 590.000061 590.517314 591.031182 591.492137 591.853231 592.071704 592.110514 591.939721 591.537677 590.891968 590.000061 588.437922 586.691504 584.822942 582.898494 580.985198 579.147512 577.444062 575.924641 574.627546 573.577393 573.085513 572.817242 572.724649 572.746826 572.812460 572.842836 572.755173 572.466164 571.895598 570.969910 569.233987 567.063779 564.455368 561.417888 557.973047 554.154285 550.005603 545.580099 540.938279 536.146179 531.254666 526.354359 521.517393 516.813226 512.306634 508.055881 504.111096 500.512931 497.291506 494.465698 492.005419 489.947286 488.278467 486.974980 486.002492 485.317441 484.868434 484.597887 484.443851 484.341980 484.119388 483.831375 483.427029 482.859638 482.087897 481.076981 479.799470 478.236082 476.376216 474.218262 471.641627 468.801896 465.734156 462.479902 459.085531 455.600746 452.076892 448.565285 445.115581 441.774231 438.505019 435.428448 432.579817 429.985813 427.663528 425.619801 423.850890 422.342503 421.070182 420.000031 419.137491 418.382591 417.676551 416.957364 416.162064 415.229052 414.100435 412.724271 411.056655 409.063568 406.396093 403.398517 400.100274 396.540783 392.767653 388.834674 384.799657 380.722217 376.661572 372.674438 368.986374 365.455352 362.106190 358.957094 356.019845 353.300226 350.798683 348.511164 346.430100 344.545471 342.608748 340.866514 339.326665 337.995956 336.879583 335.980784 335.300443 334.836760 334.584963 334.537109 334.690940 335.022169 335.512375 336.140252 336.881962 337.711587 338.601656 339.523749 340.449141 341.349487 342.123779 342.827038 343.441876 343.952954 344.347137 344.613614 344.743994 344.732351 344.575246 344.271698 343.676383 342.951999 342.116120 341.186616 340.180660 339.113816 337.999237 336.846999 335.663613 334.451721 333.317225 332.139126 330.900091 329.580952 328.161981 326.624252 324.951030 323.129126 321.150168 319.011719 316.479916 313.825765 311.088079 308.310915 305.542133 302.831810 300.230563 297.787828 295.550158 ) qmult=(119.746535 119.385580 119.006163 118.597417 118.149125 117.652158 117.098872 116.483454 115.802200 115.053716 114.239043 113.401610 112.504152 111.551687 110.551750 109.514315 108.451623 107.377928 106.309141 105.262420 104.255675 103.312994 102.445403 101.669308 100.999687 100.449534 100.029347 99.746655 99.605617 99.606711 99.746520 100.156505 100.674797 101.275059 101.928961 102.607307 103.281175 103.923036 104.507808 105.013817 105.423613 105.655771 105.777920 105.793931 105.712543 105.546845 105.313603 105.032456 104.725006 104.413843 104.121535 103.998441 103.924058 103.904854 103.945160 104.047175 104.211041 104.434956 104.715346 105.047063 105.423613 105.849730 106.303820 106.775791 107.255292 107.732009 108.195934 108.637608 109.048313 109.420230 109.746550 110.070221 110.333716 110.529609 110.652067 110.697008 110.662212 110.547349 110.353962 110.085376 109.746550 109.397060 108.986756 108.519906 108.001997 107.439684 106.840701 106.213718 105.568169 104.914030 104.261580 103.660217 103.077514 102.519848 101.993195 101.503051 101.054335 100.651296 100.297408 99.995273 99.746520 99.616088 99.533602 99.492172 99.484415 99.502779 99.539857 99.588657 99.642850 99.696961 99.746520 99.802082 99.846189 99.876598 99.892266 99.893301 99.880858 99.856985 99.824436 99.786451 99.746520 99.810073 99.869813 99.920370 99.956854 99.975203 99.972506 99.947273 99.899636 99.831486 99.746520 99.632655 99.516055 99.406649 99.315296 99.253315 99.231981 99.261979 99.352856 99.512478 99.746520 100.158902 100.640005 101.178486 101.760665 102.370965 102.992399 103.607092 104.196815 104.743524 105.229873 105.652829 105.983724 106.208976 106.317474 106.300897 106.153950 105.874501 105.463640 104.925629 104.267775 103.569719 102.768679 101.873987 100.897561 99.853812 98.759470 97.633343 96.495987 95.369312 94.276122 93.286152 92.371998 91.552186 90.844415 90.265197 89.829503 89.550384 89.438605 89.502284 89.746550 90.186088 90.804989 91.596769 92.551200 93.654281 94.888300 96.231948 97.660534 99.146273 100.658660 102.298256 103.886102 105.375944 106.722608 107.883432 108.819648 109.497654 109.890155 109.977125 109.746550 109.146365 108.234703 107.029484 105.556545 103.848850 101.945486 99.890482 97.731474 95.518271 93.301360 91.214814 89.213877 87.335554 85.612893 84.074278 82.742839 81.636003 80.765192 80.135669 79.746550 79.519163 79.518075 79.731446 80.142134 80.728035 81.462565 82.315314 83.252834 84.239592 85.239043 86.573555 87.820000 88.917435 89.813034 90.465313 90.847055 90.947789 90.775730 90.359071 89.746550 88.454448 87.169871 86.043055 85.232976 84.901151 85.205188 86.292322 88.293157 91.315855 95.440978 101.393104 108.451151 116.537505 125.544180 135.336640 145.758422 156.636399 13.609400 24.842550 35.970733 46.451312 56.509748 66.023374 74.887008 83.014736 90.341091 96.821596 102.432706 107.171159 111.052787 114.171979 116.509045 118.121009 119.076103 119.451161 119.328871 118.794973 117.935485 116.834046 115.569457 114.450994 113.283827 112.101486 110.928769 109.782347 108.671648 107.599976 106.565783 105.564059 104.587753 103.462700 102.362861 101.296249 100.271743 99.299009 98.388279 97.550034 96.794582 96.131568 95.569450 95.243169 95.017211 94.883241 94.831357 94.850391 94.928227 95.052113 95.208972 95.385702 95.569450 95.782849 95.976400 96.136620 96.251509 96.310870 96.306551 96.232636 96.085552 95.864108 95.569450 95.187369 94.742209 94.242604 93.698488 93.120654 92.520280 91.908455 91.295717 90.691617 90.104331 89.627404 89.170977 88.730471 88.300068 87.873185 87.442960 87.002759 86.546666 86.069946 85.569450 84.995989 84.402725 83.796736 83.186914 82.583669 81.998562 81.443878 80.932160 80.475714 80.086112 79.815970 79.627782 79.524799 79.508349 79.577770 79.730390 79.961567 80.264782 80.631782 81.052779 81.587212 82.146803 82.713065 83.267917 83.794415 84.277452 84.704380 85.065552 85.354744 85.569450 85.621003 85.612156 85.559071 85.480307 85.395910 85.326418 85.291852 85.310710 85.399016 85.569450 85.980268 86.472866 87.034145 87.647418 88.293161 88.949869 89.594972 90.205794 90.760501 91.239013 91.543713 91.747663 91.846995 91.841290 91.733466 91.529563 91.238409 90.871210 90.441065 89.962425 89.524487 89.062182 88.584766 88.101498 87.621517 87.153737 86.706744 86.288699 85.907251 85.569450 85.286535 85.058910 84.890960 84.786223 84.747356 84.776111 84.873307 85.038815 85.271547 85.569450 85.940533 86.368738 86.848334 87.372853 87.935196 88.527745 89.142478 89.771094 90.405134 91.036117 91.722120 92.383057 93.005843 93.578648 94.091377 94.536095 94.907388 95.202637 95.422193 95.569450 95.586666 95.552497 95.483899 95.399323 95.317898 95.258592 95.239356 95.276303 95.382932 95.569450 95.953571 96.416326 96.946321 97.528770 98.146124 98.778800 99.405975 100.006422 100.559353 101.045249 101.409626 101.678185 101.842468 101.897409 101.841511 101.676911 101.409324 101.047877 100.604837 100.095245 99.556860 98.986387 98.402623 97.825246 97.274267 96.769477 96.329886 95.973177 95.715190 95.569450 95.604828 95.766079 96.052984 96.462496 96.988977 97.624476 98.359064 99.181197 100.078092 101.036117 102.014289 103.027570 104.064093 105.112182 106.160467 107.197961 108.214114 109.198844 110.142553 111.036125 111.909981 112.713369 113.435544 114.066727 114.598333 115.023166 115.335615 115.531810 115.609760 115.569457 115.449960 115.215378 114.868922 114.416231 113.865474 113.227395 112.515277 111.744837 110.934032 110.102790 109.229405 108.383367 107.591624 106.880825 106.276509 105.802291 105.479084 105.324372 105.351565 105.569457 106.062356 106.741133 107.592424 108.598422 109.737495 110.984893 112.313552 113.694939 115.099928 116.499687 117.873108 119.187660 120.419701 121.548944 122.559034 123.437997 124.178547 124.778249 125.239514 125.569450 125.713969 125.759183 125.729218 125.650183 125.549028 125.452377 125.385379 125.370613 125.427102 125.569450 125.960654 126.438063 126.987487 127.590588 128.225859 128.869717 129.497676 130.085548 130.610622 131.052787 131.302495 131.449106 131.493135 131.439655 131.298096 131.081892 130.807976 130.496146 130.168321 129.847717 129.561896 129.329008 129.170679 129.106456 129.153012 129.323422 129.626560 130.066615 130.642771 131.349044 132.328527 133.398206 134.525068 135.673813 136.808375 137.893488 138.896210 139.787381 140.542923 141.144965 141.372361 141.450130 141.400029 141.249458 141.030063 140.776186 140.523213 140.305897 140.156718 140.104339 140.403614 140.820204 141.345590 141.966097 142.663786 143.417506 144.204063 144.999458 145.780142 146.524230 147.088541 147.593015 148.036812 148.422875 148.757725 149.051110 149.315519 149.565582 149.817388 150.087726 150.395844 150.754019 151.176391 151.674864 152.258444 152.932662 153.699108 154.555104 155.493526 156.502788 157.742740 159.003378 160.247219 161.435881 162.531797 163.499927 164.309390 164.934967 165.358402 165.569454 165.280451 164.809265 164.195793 163.485681 162.728175 161.973841 161.272222 160.669546 160.206562 159.916591 160.170624 160.606037 161.197895 161.913635 162.714900 163.559599 164.404111 165.205531 165.923889 166.524230 166.692320 166.719575 166.618870 166.410305 166.120167 165.779644 165.423370 165.087824 164.809686 164.624183 164.757150 165.025450 165.435730 165.990146 166.686555 167.518846 168.477399 169.549649 170.720725 171.974140 173.208226 174.497161 175.830485 177.197825 178.589005 179.994140 181.403697 182.808529 184.199893 185.569455 186.933635 188.258160 189.533990 190.752788 191.907039 192.990163 193.996616 194.921982 195.763050 196.517876 197.223631 197.840171 198.366525 198.803480 199.153755 199.422118 199.615448 199.742739 199.815018 199.845198 199.763322 199.676751 199.609206 199.584033 199.623271 199.746739 199.971172 200.309447 200.769924 201.355928 202.194230 203.137402 204.162042 205.240924 206.344093 207.440040 208.496934 209.483861 210.372026 211.135880 211.621277 211.956206 212.140837 212.180053 212.083012 211.862573 211.534619 211.117299 210.630227 210.093665 209.663950 209.212350 208.745666 208.270127 207.791619 207.315947 206.849104 206.397526 205.968323 205.569457 205.075548 204.642233 204.291108 204.043043 203.917257 203.930406 204.095706 204.422153 204.913845 205.569457 206.505961 207.575498 208.749266 209.994264 211.274399 212.551690 213.787559 214.944144 215.985604 216.879362 217.529129 217.986519 218.240429 218.285848 218.123953 217.762024 217.213191 216.496007 215.633872 214.654317 213.561976 212.418013 211.259241 210.122623 209.044084 208.057362 207.192926 206.477000 205.930720 205.569457 205.507244 205.632980 205.934163 206.392952 206.987059 207.690767 208.476033 209.313643 210.174370 211.030094 211.743234 212.412278 213.027075 213.580651 214.069077 214.491209 214.848340 215.143750 215.382214 215.569458 215.758585 215.904167 216.007892 216.070944 216.093852 216.076379 216.017464 215.915220 215.766991 215.569458 215.353195 215.077069 214.734070 214.317740 213.822646 213.244852 212.582344 211.835417 211.006981 210.102791 209.050810 207.950354 206.822472 205.689973 204.576679 203.506640 202.503317 201.588779 200.782928 200.102790 199.633436 199.306576 199.121661 199.074343 199.156745 199.357829 199.663862 200.058935 200.525553 201.045250 201.568861 202.111045 202.656489 203.190913 203.701395 204.176673 204.607364 204.986140 205.307829 205.569457 205.778534 205.927304 206.018297 206.055857 206.045936 205.995832 205.913897 205.809213 205.691240 205.569457 205.407883 205.263618 205.147731 205.069473 205.035775 205.050807 205.115643 205.228040 205.382329 205.569457 205.908177 206.241578 206.541464 206.779166 206.926900 206.959119 206.853811 206.593687 206.167216 205.569457 204.594640 203.478106 202.253813 200.960684 199.640990 198.338618 197.097256 195.958595 194.960596 194.135890 193.719738 193.502663 193.477316 193.629519 193.939144 194.381196 194.927044 195.545774 196.205584 196.875189 197.383651 197.858731 198.289548 198.668680 198.992169 199.259383 199.472775 199.637517 199.761070 199.852674 200.152643 200.423493 200.657914 200.850617 200.999011 201.103767 201.169226 201.203618 201.219064 201.231339 200.818007 200.478279 200.270436 200.248156 200.456844 200.930158 201.686851 202.728105 204.035458 205.569457 208.009888 210.471792 212.793703 214.804619 216.330824 217.202966 217.263136 216.371685 214.413533 211.303724 206.235307 200.018487 192.741598 184.525216 175.517641 165.889491 155.827627 145.528600 289.368965 279.190116 269.853282 260.983484 252.687935 245.053205 238.144042 232.002882 226.650047 222.084588 218.285719 215.214782 212.764803 210.928448 209.632968 208.798192 208.339565 208.171210 208.208904 208.372896 208.590459 208.798125 208.782750 208.678836 208.472694 208.162572 207.757713 207.277026 206.747430 206.201941 205.677587 205.213210 204.987094 204.882657 204.920301 205.115816 205.479557 206.015835 206.722535 207.590987 208.606069 209.746550 211.032724 212.382921 213.757867 215.115995 216.414956 217.613173 218.671411 219.554279 220.231642 220.679869 220.822986 220.718850 220.373348 219.800773 219.023488 218.071328 216.980759 215.793820 214.556864 213.319152 212.083710 210.951702 209.975721 209.204519 208.681195 208.441531 208.512517 208.911142 209.643470 210.704070 212.344517 214.245071 216.344523 218.574622 220.862780 223.134914 225.318315 227.344462 229.151661 230.687423 231.648667 232.291407 232.622038 232.658507 232.429049 231.970577 231.326774 230.545986 229.678976 228.776641 228.075805 227.415871 226.820449 226.307639 225.889624 225.572477 225.356204 225.234988 225.197648 225.228270 225.399094 225.588411 225.763817 225.892924 225.944994 225.892511 225.712634 225.388465 224.910083 224.275313 223.274148 222.154902 220.957331 219.726317 218.509846 217.356845 216.314942 215.428255 214.735282 214.266982 214.364371 214.692006 215.224273 215.927292 216.760501 217.678457 218.632808 219.574335 220.455008 221.229964 221.660040 221.928881 222.027000 221.951556 221.706038 221.299716 220.746915 220.066108 219.278907 218.408965 217.647040 216.836772 215.988077 215.110588 214.213638 213.306287 212.397353 211.495460 210.609076 209.746550 208.860332 208.019244 207.235604 206.520787 205.884817 205.335972 204.880406 204.521820 204.261171 204.096465 204.112618 204.203725 204.351291 204.534911 204.732983 204.923447 205.084540 205.195531 205.237416 205.193557 205.042837 204.783155 204.408405 203.916292 203.308391 202.590088 201.770396 200.861654 199.879128 198.840514 197.768859 196.680822 195.597531 194.540066 193.528777 192.582623 191.718543 190.950890 190.290951 189.746550 189.450143 189.262963 189.170991 189.157827 189.205595 189.295885 189.410694 189.533322 189.649190 189.746550 189.679806 189.593214 189.497251 189.404932 189.330943 189.290708 189.299398 189.370943 189.517093 189.746550 190.291106 190.905142 191.566379 192.250200 192.930841 193.582646 194.181322 194.705155 195.136113 195.460830 195.519466 195.475227 195.344596 195.148672 194.912194 194.662401 194.427797 194.236841 194.116627 194.091597 194.344630 194.714946 195.199519 195.790700 196.476577 197.241455 198.066446 198.930144 199.809358 200.679885 201.489520 202.244849 202.925318 203.511888 203.987479 204.337341 204.549342 204.614178 204.525489 204.279891 203.904117 203.370779 202.682705 201.845410 200.866924 199.757556 198.529602 197.197018 195.775057 194.279891 192.795937 191.266581 189.703035 188.116717 186.519296 184.922728 183.339282 181.781542 180.262390 178.794951 177.405638 176.093704 174.871242 173.750142 172.741932 171.857597 171.107354 170.500407 170.044680 169.746535 169.607172 169.632301 169.822267 170.174809 170.684841 171.344281 172.141943 173.063499 174.091527 175.205642 176.530267 177.880140 179.215887 180.498279 181.689588 182.754909 183.663395 184.389367 184.913256 185.222335 185.177857 184.926734 184.489379 183.891963 183.165164 182.342781 181.460238 180.553047 179.655282 178.798125 178.192481 177.660006 177.201293 176.812030 176.483505 176.203267 175.955911 175.723952 175.488755 175.231490 174.909683 174.533975 174.092130 173.574660 172.975274 172.291214 171.523438 170.676669 169.759289 168.783095 167.764527 166.718878 165.665334 164.624349 163.616870 162.663519 161.783766 160.995103 160.