New loadshape.LS_PhaseA npts=1440 sinterval=60 pmult=(595.814026 598.188059 600.358712 602.290826 603.952786 605.317263 606.361916 607.070082 607.431402 607.442403 607.106995 606.566450 605.701085 604.528377 603.075396 601.379376 599.488013 597.459465 595.361989 593.273222 591.279053 588.874662 586.804600 585.216725 584.252158 584.039297 584.688064 586.284586 588.886522 592.519207 597.172791 603.276431 610.228800 617.871011 626.014951 634.448967 642.944373 651.262600 659.162737 666.409248 672.779602 677.730374 681.459613 683.851890 684.825579 684.335129 682.372380 678.966865 674.185105 668.128904 660.932678 652.246739 642.812957 632.880739 622.708106 612.552919 602.664195 593.273797 584.588794 576.784722 570.000000 565.280498 561.651585 559.044636 557.356594 556.456916 556.195368 556.410354 556.937439 557.617713 558.305664 557.165163 555.953077 554.738748 553.606482 552.648320 551.956388 551.615206 551.694318 552.241608 553.277649 556.797769 560.580795 564.385236 567.957515 571.044907 573.408805 574.837771 575.159814 574.253355 572.056396 565.941170 558.839032 551.107771 543.145996 535.375105 528.220214 522.090802 517.361799 514.355860 513.327515 516.798108 522.298082 529.623362 538.495457 548.574293 559.473256 570.775882 582.053534 592.883422 602.866272 609.854185 615.490755 619.681750 622.390057 623.634061 623.484138 622.057470 619.511401 616.035626 611.843506 607.571959 603.004120 598.337056 593.760137 589.448741 585.558580 582.220800 579.538006 577.581309 576.388489 576.157914 576.650529 577.788716 579.467598 581.559809 583.921017 586.396002 588.825080 591.050653 592.923645 593.892137 594.297170 594.082443 593.215597 591.689090 589.520270 586.750664 583.444489 579.686466 575.578979 570.759476 565.870877 561.085656 556.573297 552.493217 548.988060 546.177603 544.153516 542.975182 542.666748 544.345010 546.737826 549.669162 552.942596 556.351386 559.688995 562.759643 565.388463 567.430845 568.780579 567.424681 565.468638 563.109288 560.574206 558.109876 555.969049 554.397792 553.622749 553.839144 555.200012 559.811399 565.541362 572.210449 579.597011 587.448016 595.491093 603.447295 611.044083 618.027978 624.176392 627.021394 628.914347 629.963295 630.311151 630.125767 629.589062 628.885670 628.191634 627.663610 627.429077 629.621697 632.068481 634.603823 637.034855 639.152128 640.741223 641.594818 641.524680 640.373101 638.023254 632.265611 625.416193 617.696502 609.366904 600.715312 592.044799 583.660618 575.857138 568.905204 563.040405 559.962135 558.164824 557.603896 558.187750 559.783787 562.225915 565.323211 568.869389 572.652708 576.465942 579.093490 581.479121 583.564598 585.317050 586.728951 587.817164 588.621100 589.200100 589.630152 590.000061 590.435715 591.004376 591.805679 592.935234 594.480400 596.516350 599.102573 602.279923 606.068312 610.465149 615.592810 621.241756 627.328614 633.750984 640.390683 647.117583 653.793909 660.278879 666.433507 672.125427 676.944196 681.100229 684.530487 687.191351 689.059868 690.134449 690.434989 690.002412 688.897638 687.200012 684.738316 681.910118 678.857339 675.726633 672.664446 669.812092 667.301014 665.248372 663.753104 662.892578 662.746417 663.311554 664.586228 666.542030 669.124766 672.256171 675.836425 679.747389 683.856500 688.021179 692.285889 696.297042 699.895917 702.935814 705.288094 706.847752 707.538317 707.315889 706.172166 704.136292 700.233894 695.697361 690.750104 685.635893 680.608819 675.922870 671.821506 668.527608 666.234168 665.096069 666.254093 668.648554 672.203820 676.801406 682.285927 688.472336 695.154147 702.112336 709.124579 715.974487 721.459164 726.489515 730.996586 734.935896 738.287015 741.052318 743.255015 744.936538 746.153442 746.973938 747.526116 747.830265 747.963939 748.002851 748.017816 748.072047 748.218879 748.500012 748.944329 749.567322 750.728728 752.032366 753.427319 754.856822 756.262466 757.588525 758.786242 759.817869 760.660281 761.307983 760.654493 759.950491 759.343046 758.987703 759.041059 759.653143 760.959909 763.076132 766.089011 770.052734 776.052197 782.905143 790.461875 798.543830 806.950964 815.469961 823.882932 831.976284 839.549416 846.422913 851.093388 854.913301 857.914161 860.155108 861.717774 862.700407 863.211539 863.363451 863.265738 863.019226 863.502341 863.921133 864.258191 864.480600 864.542740 864.389803 863.961848 863.198249 862.042306 860.445862 857.965074 855.029003 851.671385 847.943662 843.914810 839.670550 835.311908 830.953174 826.719263 822.742554 818.236176 814.332687 811.238450 809.141198 808.200678 808.540042 810.238336 813.324414 817.772561 823.500061 832.061424 841.425995 851.210969 861.007277 870.396662 878.969343 886.341603 892.172632 896.179990 898.153076 895.368170 890.605010 884.129029 876.272470 867.418510 857.983649 848.399047 839.091559 830.465148 822.883423 818.845699 816.208547 814.956003 815.010438 816.239897 818.467448 821.482099 825.050796 828.931019 832.883423 834.868109 836.663124 838.251364 839.638792 840.851330 841.930836 842.930392 843.909115 844.926777 846.038452 847.849719 849.779106 851.795832 853.855198 855.899418 857.859129 859.655527 861.203058 862.412579 863.194885 863.627313 863.459826 862.611958 861.019525 858.638991 855.451320 851.465134 846.719018 841.282824 835.257874 827.278949 819.126682 811.106354 803.527083 796.688414 790.867076 786.304401 783.194912 781.676518 781.822754 785.622778 790.855370 797.220370 804.370329 811.926427 819.495629 826.688404 833.136339 838.508960 842.529114 842.477755 840.945759 838.084922 834.107680 829.275214 823.883815 818.250058 812.695400 807.530793 803.041931 801.184481 800.295854 800.376659 801.380302 803.217269 805.761070 808.855584 812.323473 815.975315 819.619080 822.109979 824.326058 826.197399 827.673575 828.724814 829.342379 829.538144 829.343426 828.807092 827.993042 826.421359 824.774394 823.186487 821.786962 820.693020 820.003058 819.790714 820.099872 820.940861 822.288025 825.257370 828.473884 831.710252 834.722168 837.259819 839.079867 839.957450 839.697748 838.146637 835.200012 828.976457 821.484449 812.953182 803.657814 793.908200 784.036405 774.383446 765.285761 757.061914 750.000000 745.599196 742.691071 741.311202 741.444642 743.028942 745.958755 750.091803 755.255949 761.257092 767.887573 773.904405 780.219500 786.716906 793.287393 799.829694 806.251383 812.469425 818.410450 824.010793 829.216370 834.481861 839.229570 843.392546 846.917864 849.768869 851.927121 853.393909 854.191258 854.362356 853.971313 852.087560 849.912941 847.647162 845.491492 843.639838 842.270001 841.535464 841.558008 842.421449 844.166748 847.749201 852.073884 856.963730 862.207272 867.567518 872.791860 877.622641 881.808011 885.112661 887.328064 887.206890 885.790276 883.086162 879.145528 874.059879 867.957463 860.998386 853.368802 845.274393 836.933350 828.828864 820.897371 813.331023 806.309579 799.995565 794.530004 790.028824 786.580011 784.241592 783.040466 782.673565 783.429386 785.267034 788.115040 791.872774 796.412717 801.583552 807.214012 813.117400 819.096680 825.409975 831.361174 836.718892 841.269340 844.824576 847.230075 848.371362 848.179439 846.634782 843.769714 838.089800 831.441518 824.135783 816.509244 808.909503 801.679912 795.144547 789.593895 785.271815 782.364258 782.774661 784.612219 787.702833 791.814911 796.670886 801.960447 807.354941 812.522404 817.142640 820.921753 821.715710 821.376467 819.912896 817.380537 813.876757 809.534449 804.514586 798.997938 793.176298 787.243591 782.390924 777.698429 773.237482 769.063298 765.215116 761.717084 758.579771 755.802189 753.374191 751.279114 748.656401 746.397698 744.549637 743.152703 742.238820 741.829101 741.931857 742.540985 743.634812 745.175476 747.611873 750.329229 753.203218 756.102662 758.894589 761.449466 763.646384 765.378041 766.555297 767.111145 766.072416 764.435713 762.290443 759.744700 756.919679 753.943676 750.945930 748.050543 745.370707 743.003479 741.751255 740.878201 740.351943 740.120329 740.114954 740.255372 740.453781 740.620014 740.666596 740.513672 739.159760 737.567981 735.780799 733.851948 731.843267 729.821199 727.853137 726.003766 724.331555 722.885559 722.297877 721.944928 721.785866 721.769947 721.839500 721.933236 721.989741 721.950987 721.765735 721.392639 719.855053 718.167248 716.407193 714.659143 713.008797 711.538379 710.321839 709.420386 708.878548 708.720947 709.696330 710.973267 712.446890 713.997634 715.496907 716.813282 717.818931 718.396087 718.443252 717.880920 715.752408 713.018953 709.764857 706.099547 702.153358 698.072609 694.014159 690.139619 686.609445 683.577087 681.363303 679.893224 679.254158 679.510020 680.699326 682.834007 685.899068 689.853107 694.629671 700.139404 706.596831 713.528542 720.769479 728.149659 735.500669 742.662077 749.487519 755.850223 761.647764 766.805847 769.719032 772.067029 773.996359 775.667404 777.243746 778.881383 780.718304 782.864862 785.395389 788.341431 793.874914 799.557921 805.098595 810.181420 814.483120 817.689289 819.511046 819.701057 818.068231 814.490479 805.936667 795.693104 784.132317 771.683475 758.813722 746.008043 733.748442 722.493232 712.657239 704.593689 701.364142 700.129453 700.754316 703.030860 706.691547 711.424164 716.888292 722.732546 728.611891 734.204346 736.454065 738.140775 739.316507 740.072460 740.529976 740.830219 741.123069 741.555733 742.261609 743.349915 747.049190 751.056244 755.188692 759.239646 762.987893 766.208994 768.686806 770.224976 770.657897 769.860657 765.622185 760.241796 753.930101 746.935672 739.533854 732.014596 724.669791 717.780610 711.605316 706.368042 703.827644 702.397228 702.021354 702.601210 704.001415 706.058164 708.588358 711.399351 714.298889 717.104858 718.087712 718.814421 719.308623 719.615547 719.797710 719.929888 720.093626 720.371533 720.841622 721.571960 723.631423 725.951056 728.462814 731.086575 733.734445 736.315516 738.740871 740.928615 742.808709 744.327393 744.321589 744.007013 743.488163 742.882681 742.315477 741.912538 741.794678 742.071460 742.835550 744.157715 746.797543 749.993849 753.674286 757.743018 762.084926 766.570588 771.061812 775.417522 779.499777 783.179687 785.633966 787.539557 788.882105 789.666343 789.914979 789.666998 788.975484 787.905035 786.528887 784.925842 783.143031 781.295448 779.463193 777.719914 776.130111 774.746829 773.609817 772.744229 772.159893 771.851196 771.878912 772.121010 772.524206 773.025998 773.557708 774.047834 774.425586 774.624472 774.585818 774.262085 773.284630 772.001621 770.441410 768.648334 766.681691 764.614237 762.530236 760.523120 758.692826 757.142883 755.713066 754.789539 754.489267 754.917495 756.163386 758.296069 761.361253 765.378520 770.339408 776.206360 783.007307 790.543771 798.686495 807.283434 816.163765 825.142581 834.026157 842.617618 850.722862 858.156555 864.644612 870.151288 874.559330 877.779901 879.755913 880.464566 879.919009 878.169040 875.300800 871.435425 866.025959 860.013550 853.662503 847.249213 841.052592 835.344413 830.379864 826.388644 823.566889 822.070190 822.548210 824.472644 827.807009 832.467745 838.328049 845.223075 852.956296 861.306827 870.037439 878.903015 887.179242 895.154663 902.649025 909.500872 915.571760 920.749748 924.952128 928.127289 930.255711 931.350037 931.169402 930.094757 928.249926 925.779556 922.843630 919.611611 916.256400 912.948304 909.849198 907.107056 904.898733 903.277222 902.318590 902.070633 902.551535 903.749500 905.623356 908.104109 911.097408 914.486816 918.085567 921.804399 925.490595 928.987457 932.139615 934.798373 936.826930 938.105307 938.534826 938.041992 936.093869 933.205279 929.432662 924.859320 919.592305 913.758650 907.501074 900.973306 894.335173 887.747620 881.377561 875.361199 869.834001 864.915161 860.704324 857.278948 854.692394 852.972770 852.122578 852.119141 853.012604 854.631432 856.879320 859.644487 862.803896 866.227801 869.784441 873.344726 876.786766 880.000061 881.973371 883.621789 884.962254 886.023785 886.843536 887.462654 887.922142 888.258931 888.502342 888.671143 889.787910 890.742707 891.431256 891.746508 891.585332 890.855386 889.481840 887.413685 884.629283 881.140930 875.242886 868.927443 862.462797 856.135164 850.236650 845.052754 840.849984 837.864060 836.289166 836.268677 839.499360 844.253544 850.357956 857.591025 865.693328 874.379393 883.350383 892.307184 900.963378 909.057617 914.660190 919.445119 923.422974 926.644163 929.193626 931.184272 932.749454 934.034811 935.189805 936.359314 938.214521 940.277464 942.592269 945.178554 948.030270 951.115642 954.378217 957.738978 961.099451 964.345703 967.723893 970.707566 973.136231 974.859086 975.743090 975.680608 974.596323 972.453109 969.256602 965.058228 958.142965 950.620421 942.825286 935.111892 927.838691 921.352374 915.972252 911.975484 909.583732 908.951782 912.080158 916.879712 923.109261 930.464859 938.593113 947.106328 955.598907 963.664415 970.912644 976.986084 979.736946 980.916363 980.494443 978.500735 975.020501 970.189189 964.185350 957.222312 949.538930 941.389771 933.613568 925.833525 918.247086 911.036899 904.366060 898.374186 893.174386 888.851202 885.459532 883.024536 881.413630 880.738394 880.953146 881.989042 883.757347 886.153281 889.060286 892.354580 895.909855 899.601929 902.745782 905.850409 908.868720 911.764695 914.512906 917.097705 919.512142 921.756688 923.837837 925.766663 927.773737 929.639809 931.364459 932.949484 934.399218 935.720927 936.925258 938.026677 939.043870 940.000061 940.392616 940.830041 941.391883 942.155761 943.194009 944.570479 946.337603 948.533844 951.181616 954.285767 957.978557 962.069088 966.495177 971.179199 976.030596 980.948878 985.827017 990.555124 995.024287 999.130432 1002.413809 1005.187495 1007.412298 1009.062743 1010.127418 1010.608966 1010.523743 1009.901140 1008.782617 1007.220459 1004.987634 1002.464949 999.750980 996.945188 994.144395 991.439430 988.912087 986.632471 984.656851 983.026062 982.027171 981.383909 981.066420 981.032275 981.229433 981.599556 982.081550 982.615184 983.144627 983.621765 983.127908 982.594308 982.082113 981.658701 981.393606 981.354320 981.602165 982.188412 983.150829 984.510803 987.035333 989.878885 992.943025 996.118126 999.288730 1002.339239 1005.159715 1007.651535 1009.732657 1011.342285 1011.102959 1010.462418 1009.549618 1008.508329 1007.489425 1006.642871 1006.109733 1006.014535 1006.458284 1007.512451 1010.229821 1013.506802 1017.222379 1021.227579 1025.352228 1029.412627 1033.219857 1036.588408 1039.344772 1041.335693 1041.333688 1040.446246 1038.709518 1036.190402 1032.983299 1029.206006 1024.994874 1020.499449 1015.876767 1011.285522 1007.174527 1003.367202 999.970888 997.077514 994.761307 993.077112 992.059341 991.721577 992.056797 993.038208 994.027294 995.605398 997.744198 1000.397220 1003.499707 1006.969106 1010.706199 1014.596892 1018.514680 1022.323730 1026.775505 1030.762627 1034.072961 1036.511788 1037.911496 1038.140622 1037.111874 1034.788773 1031.190601 1026.395386 1018.213630 1009.361953 1000.276875 991.417104 983.243149 976.196629 970.680062 967.037898 965.539566 966.365173 972.254903 980.294246 990.132084 1001.337792 1013.420233 1025.848999 1038.077107 1049.564280 1059.799944 1068.325073 1071.833623 1073.197574 1072.452293 1069.711549 1065.158418 1059.033905 1051.623789 1043.244268 1034.226987 1024.904053 1017.511909 1010.255606 1003.234983 996.523814 990.172157 984.209826 978.650748 973.497921 968.748690 964.400024 958.628136 953.426093 948.962476 945.400055 942.887985 941.554096 941.497636 942.782788 945.433240 949.428101 956.144642 963.899211 972.413577 981.381927 990.483008 999.392931 1007.798168 1015.408261 1021.967766 1027.266968 1029.181665 1029.756090 1029.120994 1027.453616 1024.967329 1021.900117 1018.502341 1015.024309 1011.704109 1008.756226 1007.846957 1007.500326 1007.687524 1008.343501 1009.372363 1010.654068 1012.052144 1013.422058 1014.619901 1015.510986 1014.282654 1012.683510 1010.787176 1008.683817 1006.474948 1004.267817 1002.169623 1000.281836 998.694885 997.483459 998.320750 999.485794 1000.857358 1002.307602 1003.711186 1004.954411 1005.943993 1006.615046 1006.937864 ) qmult=(402.093033 401.483892 400.789547 400.025592 399.213595 398.380083 397.555314 396.771902 396.063340 395.462480 395.000015 394.721010 394.627089 394.733133 395.047350 395.570630 396.296144 397.209205 398.287416 399.501094 400.813965 402.279945 403.749513 405.165473 406.470129 407.607489 408.525470 409.178043 409.527224 409.544847 409.214050 408.273915 407.011729 405.470157 403.702242 401.769480 399.739633 397.684350 395.676673 393.788517 392.088196 390.707807 389.625060 388.878962 388.497997 388.499300 388.888175 389.657990 390.790434 392.256122 394.015549 396.049178 398.270862 400.616833 403.019874 405.411547 407.724465 409.894534 411.863103 413.578945 415.000000 415.897296 416.465586 416.713401 416.659814 416.333338 415.770551 415.014498 414.112924 413.116401 412.076416 411.100784 410.174356 409.335973 408.619299 408.051840 407.654192 407.439520 407.413292 407.573264 407.909714 408.378322 408.986439 409.707697 410.510974 411.361454 412.221814 413.053496 413.818020 414.478314 415.000000 415.265758 415.344584 415.223883 414.896795 414.362322 413.625319 412.696323 411.591239 410.330892 408.940460 407.400058 405.793958 404.160032 402.536892 400.962740 399.474242 398.105471 396.886943 395.844780 395.000015 394.408637 394.036305 393.883091 393.943419 394.206506 394.656948 395.275432 396.039550 396.924672 397.904861 398.808437 399.767389 400.768751 401.799921 402.848547 403.902388 404.949176 405.976481 406.971610 407.921539 408.864579 409.730880 410.502481 411.162011 411.693196 412.081378 412.314049 412.381359 412.276591 411.996582 411.437079 410.717072 409.854053 408.868599 407.783732 406.624243 405.415972 404.185095 402.957415 401.757690 400.617203 399.547917 398.567374 397.690151 396.927618 396.287810 395.775381 395.391663 395.134809 395.000015 394.870527 394.855022 394.950550 395.151431 395.449140 395.832259 396.286534 396.795028 397.338383 397.895187 398.554633 399.171460 399.712239 400.145103 400.441112 400.575549 400.529132 400.289062 399.849873 399.214050 398.096953 396.837918 395.487805 394.101667 392.736364 391.448085 390.289915 389.309506 388.546946 388.032928 388.046074 388.313249 388.809139 389.498723 390.338971 391.280837 392.271471 393.256568 394.182769 395.000015 395.407753 395.647640 395.712189 395.601499 395.322944 394.890620 394.324579 393.649876 392.895472 392.093033 391.297201 390.517103 389.783370 389.124709 388.566904 388.131917 387.837137 387.694788 387.711512 387.888153 388.260605 388.774342 389.410089 390.144229 390.949737 391.797225 392.656065 393.495544 394.286018 395.000015 395.427087 395.749025 395.965309 396.078675 396.094525 396.020255 395.864544 395.636642 395.345674 395.000015 394.757595 394.460199 394.099100 393.665095 393.149277 392.543850 391.842933 391.043336 390.145252 389.152832 387.807748 386.412650 385.006709 383.630592 382.324717 381.127495 380.073621 379.192492 378.506799 378.031372 378.008984 378.179707 378.511978 378.967641 379.503709 380.074322 380.632804 381.133758 381.535107 381.800003 381.564000 381.168723 380.628799 379.965247 379.204118 378.374965 377.509209 376.638478 375.792985 375.000015 374.533737 374.139015 373.807230 373.525870 373.279596 373.051437 372.824090 372.581246 372.308884 371.996475 371.369202 370.718724 370.071862 369.458680 368.911170 368.461838 368.142243 367.981529 368.005029 368.232971 368.767725 369.519643 370.480846 371.636330 372.964294 374.436682 376.019953 377.676028 379.363406 381.038406 382.649240 384.160603 385.530832 386.721334 387.697863 388.431682 388.900590 389.089775 388.992447 388.610245 387.738371 386.628318 385.324108 383.874809 382.332515 380.750253 379.179881 377.670079 376.264479 375.000015 374.156077 373.480785 372.964084 372.588674 372.331414 372.164935 372.059393 371.984291 371.910288 371.810913 371.323121 370.800932 370.262026 369.727675 369.221368 368.767319 368.388911 368.107167 367.939288 367.897354 368.226430 368.665399 369.186433 369.756669 370.339552 370.896344 371.387752 371.775601 372.024484 372.103348 371.741493 371.187416 370.450389 369.545550 368.493052 367.317073 366.044709 364.704816 363.326825 361.939590 360.704185 359.499758 358.336793 357.223224 356.164652 355.164665 354.225243 353.347216 352.530751 351.775848 350.904994 350.112303 349.413977 348.825461 348.360676 348.031277 347.845955 347.809820 347.923891 348.184723 348.679202 349.291281 349.995906 350.764812 351.567487 352.372241 353.147323 353.862068 354.488020 355.000000 355.262764 355.384897 355.365347 355.207946 354.921119 354.517465 354.013220 353.427619 352.782195 352.100006 351.352282 350.619252 349.928133 349.304054 348.769084 348.341386 348.034510 347.856855 347.811325 347.895187 348.217165 348.637259 349.127632 349.657586 350.195026 350.707998 351.166221 351.542568 351.814432 351.964920 351.697837 351.320502 350.860796 350.351290 349.827554 349.326354 348.883806 348.533561 348.305105 348.222229 348.540719 349.009822 349.610742 350.318532 351.103393 351.932176 352.770028 353.582112 354.335332 355.000000 355.332707 355.552937 355.666915 355.686463 355.628388 355.513690 355.366627 355.213653 355.082298 355.000000 354.990244 355.078946 355.286957 355.630938 356.122551 356.767829 357.566733 358.512915 359.593711 360.790359 362.177166 363.618164 365.071792 366.494420 367.842055 369.072096 370.145059 371.026232 371.687177 372.107040 372.011894 371.682756 371.147544 370.441121 369.603676 368.678935 367.712286 366.748865 365.831707 365.000000 364.498608 364.125275 363.882517 363.766829 363.769387 363.876954 364.072940 364.338565 364.654084 365.000000 365.112733 365.243360 365.399240 365.589039 365.822009 366.107213 366.452744 366.864962 367.347799 367.902161 368.648114 369.445797 370.275151 371.113671 371.937262 372.721184 373.441071 374.073962 374.599323 375.000015 375.171720 375.206402 375.109020 374.889438 374.562193 374.146112 373.663801 373.141012 372.605899 372.088196 371.472924 370.947119 370.551550 370.323317 370.294172 370.488995 370.924487 371.608145 372.537547 373.699997 375.385323 377.222350 379.144050 381.078930 382.954165 384.698817 386.247000 387.540873 388.533337 389.190338 388.890519 388.283516 387.430998 386.404417 385.281149 384.140403 383.059085 382.107762 381.346918 380.823639 381.226735 381.855045 382.649393 383.538250 384.441542 385.274858 385.953852 386.398689 386.538328 386.314484 384.960902 383.241013 381.210562 378.939262 376.507412 374.002111 371.513235 369.129326 366.933568 365.000000 363.919015 363.161780 362.714820 362.551742 362.635207 362.919307 363.352271 363.879360 364.445857 365.000000 365.143535 365.222409 365.237004 365.195504 365.113295 365.012059 364.918609 364.863510 364.879531 365.000000 365.185955 365.542220 366.099822 366.883363 367.909327 369.184643 370.705590 372.457085 374.412401 376.533340 379.132780 381.760643 384.320816 386.714879 388.846324 390.624791 391.970189 392.816526 393.115301 392.838318 391.316693 389.287678 386.846394 384.104169 381.183770 378.214225 375.325443 372.642820 370.282041 368.344269 367.505856 367.181521 367.359170 368.006922 369.075423 370.500756 372.207828 374.114098 376.133489 378.180328 379.654691 381.046652 382.334647 383.504644 384.549576 385.468503 386.265549 386.948682 387.528401 388.016403 388.736013 389.358748 389.867905 390.247328 390.482422 390.561195 390.475281 390.220895 389.799664 389.219284 388.127545 386.942827 385.721987 384.524017 383.407520 382.428174 381.636284 381.074513 380.775890 380.762161 381.410363 382.317651 383.437114 384.712793 386.082394 387.480233 388.840317 390.099413 391.200009 392.093033 392.238717 392.155891 391.873249 391.428781 390.867445 390.238581 389.593179 388.981117 388.448484 388.035095 388.178305 388.458159 388.851915 389.329160 389.853625 390.385258 390.882478 391.304515 391.613723 391.777786 391.412613 390.892781 390.241145 389.487592 388.667662 387.820958 386.989382 386.215288 385.539602 385.000000 384.688366 384.565420 384.645126 384.933505 385.428204 386.118352 386.984727 388.000226 389.130628 390.335632 391.720108 393.074252 394.335821 395.444265 396.343394 396.983951 397.326009 397.341066 397.013787 396.343292 394.874223 393.145424 391.239478 389.247900 387.267213 385.394822 383.724844 382.344066 381.328149 380.738266 381.100295 381.915201 383.147959 384.747476 386.649223 388.778330 391.053041 393.388364 395.699801 397.906998 399.480710 400.855251 402.018028 402.966470 403.707190 404.254801 404.630466 404.860240 404.973282 405.000015 405.142593 405.240532 405.304107 405.340583 405.353999 405.345131 405.311629 405.248307 405.147578 405.000015 404.765094 404.465092 404.091442 403.636184 403.092592 402.455784 401.723273 400.895460 399.976013 398.972137 397.662108 396.312205 394.959130 393.640178 392.391549 391.246686 390.234700 389.378968 388.695942 388.194229 388.186726 388.326071 388.570098 388.872034 389.182970 389.454424 389.640926 389.702497 389.606924 389.331741 388.372135 387.265035 386.064285 384.831272 383.631892 382.533326 381.600748 380.894087 380.464987 380.354080 381.015564 381.998032 383.263450 384.761900 386.433890 388.213039 390.029010 391.810600 393.488840 395.000015 395.863565 396.496193 396.899130 397.082835 397.065883 396.873575 396.536350 396.088057 395.564170 395.000015 394.680064 394.361632 394.050216 393.748482 393.456761 393.173671 392.896833 392.623643 392.352045 392.081268 391.516397 390.982463 390.509641 390.127832 389.865191 389.746664 389.792619 390.017610 390.429342 391.027878 392.044986 393.204041 394.461253 395.767835 397.072044 398.321363 399.464736 400.454773 401.249850 401.816010 401.803567 401.551366 401.082770 400.429417 399.629603 398.726455 397.765949 396.794867 395.858762 395.000015 394.471387 394.069701 393.800948 393.664883 393.655514 393.761812 393.968600 394.257581 394.608442 395.000015 395.160343 395.342587 395.549556 395.784349 396.049744 396.347584 396.678185 397.039807 397.428206 397.836319 398.452557 399.048699 399.592892 400.052958 400.397905 400.599453 400.633506 400.481511 400.131644 399.579773 398.475867 397.217064 395.853496 394.439784 393.032551 391.687857 390.458650 389.392340 388.528579 387.897354 387.855394 388.042465 388.425207 388.961156 389.600914 390.290611 390.974525 391.597785 392.109028 392.462921 392.231546 391.812852 391.222955 390.486296 389.634224 388.703312 387.733515 386.766212 385.842245 385.000000 384.516206 384.155504 383.919851 383.805909 383.805607 383.906890 384.094615 384.351549 384.659424 385.000000 385.097888 385.218350 385.369521 385.560000 385.797996 386.090482 386.442354 386.855687 387.329078 387.857147 388.571892 389.305258 390.027486 390.706396 391.308616 391.800914 392.151581 392.331813 392.317048 392.088196 391.515766 390.722323 389.720064 388.528247 387.172738 385.685349 384.102994 382.466679 380.820354 379.209656 377.523123 375.975504 374.622174 373.513143 372.690945 372.188744 372.028727 372.220853 372.762008 373.635605 375.137635 376.872533 378.759502 380.711063 382.636685 384.446573 386.055437 387.386134 388.373023 388.964920 388.596946 387.829306 386.708529 385.295254 383.661119 381.885269 380.050625 378.240060 376.532633 375.000015 374.113229 373.474194 373.082409 372.924988 372.977846 373.207325 373.572156 374.025700 374.518349 375.000015 375.131994 375.187046 375.150742 375.013441 374.770336 374.421315 373.970655 373.426567 372.800614 372.107040 371.372807 370.602737 369.813838 369.022961 368.246108 367.497793 366.790490 366.134175 365.535985 365.000000 364.593180 364.242207 363.936701 363.664403 363.411964 363.165782 362.912873 362.641712 362.343023 362.010483 361.445820 360.862344 360.281039 359.724945 359.218036 358.784047 358.445287 358.221508 358.128848 358.178909 358.505788 358.971162 359.559160 360.249123 361.016409 361.833350 362.670319 363.496878 364.282953 365.000000 365.429903 365.759091 365.985176 366.108828 366.133328 366.064060 365.907963 365.672981 365.367528 365.000000 364.762877 364.463537 364.093363 363.644669 363.111644 362.491288 361.784268 360.995658 360.135518 359.219269 357.900395 356.603449 355.389160 354.318476 353.449738 352.835890 352.521814 352.541907 352.918005 353.657730 355.151959 356.944599 358.964232 361.128701 363.348414 365.529938 367.579759 369.408072 370.932450 372.081268 372.362167 372.206077 371.624544 370.643745 369.302885 367.652195 365.750578 363.663040 361.457964 359.204361 357.188366 355.233435 353.377747 351.653281 350.085316 348.692196 347.485352 346.469560 345.643419 345.000015 344.440298 344.044690 343.801872 343.697697 343.715828 343.838403 344.046711 344.321864 344.645428 345.000015 345.224616 345.462405 345.713576 345.979313 346.261146 346.560310 346.877120 347.210417 347.557108 347.911819 348.484060 349.028085 349.513720 349.911133 350.192433 350.333273 350.314362 350.122855 349.753521 349.209656 348.132018 346.945532 345.710889 344.493256 343.359450 342.375014 341.601306 341.092704 340.894046 341.038391 341.849563 343.001394 344.458496 346.173098 348.086989 350.133834 352.241772 354.336205 356.342687 358.189789 359.572506 360.694274 361.527254 362.053201 362.263717 362.160207 361.753547 361.063474 360.117741 358.951050 357.603312 356.119010 354.545985 352.933553 351.330952 349.785828 348.342789 347.042079 345.918417 345.000015 344.360718 343.956458 343.788081 343.848943 344.125428 344.597679 345.240504 346.024433 346.916874 347.883347 348.779930 349.690513 350.590959 351.458696 352.273130 353.015989 353.671580 354.226982 354.672158 355.000000 355.209440 355.295481 355.259198 355.104218 354.836492 354.464039 353.996656 353.445601 352.823271 352.142868 351.362492 350.556153 349.741975 348.937020 348.156734 347.414467 346.721080 346.084648 345.510273 345.000015 344.616461 344.287352 344.001177 343.744879 343.504659 343.266799 343.018480 342.748561 342.448282 342.111862 341.526692 340.922108 340.320251 339.744748 339.219402 338.766850 338.407257 338.157091 338.028036 338.026093 338.351443 338.779360 339.279814 339.818331 340.357486 340.858536 341.283131 341.595035 341.761804 341.756332 341.340408 340.738378 339.963678 339.036428 337.982529 336.832577 335.620618 334.382806 333.156003