New loadshape.LS_PhaseA npts=17280 sinterval=5 pmult=(1296.705566 1296.483670 1296.270355 1296.070323 1295.887405 1295.724375 1295.582819 1295.463051 1295.364089 1295.283683 1295.218410 1295.163810 1295.114580 1294.865546 1294.621589 1294.387683 1294.167949 1293.965473 1293.782160 1293.618646 1293.474271 1293.347101 1293.234015 1293.130833 1293.032510 1292.735955 1292.444282 1292.162517 1291.894806 1291.644230 1291.412669 1291.200716 1291.007654 1290.831479 1290.668996 1290.515951 1290.367223 1290.019461 1289.675933 1289.341626 1289.020662 1288.716109 1288.429849 1288.162489 1287.913338 1287.680433 1287.460626 1287.249724 1287.042668 1286.637449 1286.236059 1285.843481 1285.463834 1285.100190 1284.754433 1284.427181 1284.117759 1283.824221 1283.543444 1283.271260 1283.002643 1282.536313 1282.073567 1281.619385 1281.177885 1280.752139 1280.344041 1279.954218 1279.582011 1279.225496 1278.881575 1278.546110 1278.214109 1277.685074 1277.159558 1276.642538 1276.138129 1275.649408 1275.178274 1274.725369 1274.290049 1273.870413 1273.463392 1273.064878 1272.669916 1272.080491 1271.494626 1270.917196 1270.352231 1269.802735 1269.270556 1268.756309 1268.259353 1267.777820 1267.308700 1266.847979 1266.390823 1265.734743 1265.082811 1264.440349 1263.811815 1263.200612 1262.608929 1262.037653 1261.486325 1260.953157 1260.435106 1259.928000 1259.426718 1258.740179 1258.058417 1257.385416 1256.724252 1256.076938 1255.444325 1254.826049 1254.220533 1253.625051 1253.035836 1252.448238 1251.856934 1251.056805 1250.253238 1249.451719 1248.657052 1247.873153 1247.102900 1246.348018 1245.609029 1244.885249 1244.174842 1243.474922 1242.781711 1241.907237 1241.041052 1240.188393 1239.353547 1238.539679 1237.748705 1236.981228 1236.236521 1235.512572 1234.806182 1234.113111 1233.428283 1232.552457 1231.684802 1230.830219 1229.992791 1229.175613 1228.380656 1227.608689 1226.859250 1226.130677 1225.420178 1224.723971 1224.037453 1223.168128 1222.308961 1221.464914 1220.640116 1219.837682 1219.059585 1218.306576 1217.578158 1216.872616 1216.187099 1215.517753 1214.859900 1214.020133 1213.192230 1212.381132 1211.590946 1210.824772 1210.084570 1209.371086 1208.683821 1208.021061 1207.379963 1206.756682 1206.146551 1205.356936 1204.580821 1203.823121 1203.087918 1202.378292 1201.696189 1201.042340 1200.416239 1199.816172 1199.239293 1198.681762 1198.138920 1197.418828 1196.713740 1196.028538 1195.367277 1194.733014 1194.127673 1193.551969 1193.005387 1192.486200 1191.991560 1191.517624 1191.059730 1190.425095 1189.806850 1189.209928 1188.638431 1188.095455 1187.582952 1187.101653 1186.651038 1186.229362 1185.833735 1185.460254 1185.104178 1184.577980 1184.069005 1183.581751 1183.119905 1182.686184 1182.282219 1181.908487 1181.564305 1181.247859 1180.956301 1180.685884 1180.432142 1179.998666 1179.583098 1179.191079 1178.827488 1178.496239 1178.200129 1177.940730 1177.718338 1177.531972 1177.379432 1177.257405 1177.161621 1176.909241 1176.683134 1176.487569 1176.325858 1176.200200 1176.111571 1176.059676 1176.042943 1176.058579 1176.102675 1176.170365 1176.256021 1176.162650 1176.086071 1176.030732 1176.000367 1175.997812 1176.024870 1176.082221 1176.169389 1176.284752 1176.425608 1176.588295 1176.768341 1176.779662 1176.808583 1176.859812 1176.937227 1177.043695 1177.180946 1177.349495 1177.548614 1177.776366 1178.029681 1178.304494 1178.595916 1178.712686 1178.845775 1178.999798 1179.178558 1179.384875 1179.620451 1179.885798 1180.180206 1180.501771 1180.847472 1181.213302 1181.594440 1181.801103 1182.022815 1182.264176 1182.528974 1182.820015 1183.138988 1183.486392 1183.861502 1184.262400 1184.686051 1185.128434 1185.584711 1185.864956 1186.158802 1186.470840 1186.804852 1187.163634 1187.548869 1187.961044 1188.399428 1188.862092 1189.345990 1189.847088 1190.360538 1190.696199 1191.043895 1191.408217 1191.792945 1192.200874 1192.633683 1193.091859 1193.574663 1194.080162 1194.605304 1195.146046 1195.697531 1196.071492 1196.455756 1196.854796 1197.272285 1197.710923 1198.172319 1198.656908 1199.163933 1199.691468 1200.236504 1200.795070 1201.362411 1201.742979 1202.132582 1202.536293 1202.958358 1203.402001 1203.869273 1204.360954 1204.876503 1205.414073 1205.970571 1206.541778 1207.122517 1207.530556 1207.946229 1208.372892 1208.813011 1209.268017 1209.738220 1210.222768 1210.719654 1211.225786 1211.737097 1212.248706 1212.755127 1213.054261 1213.348006 1213.641708 1213.940108 1214.247139 1214.565760 1214.897844 1215.244106 1215.604094 1215.976230 1216.357894 1216.745570 1216.957891 1217.177723 1217.410122 1217.659187 1217.927891 1218.217957 1218.529795 1218.862489 1219.213841 1219.580469 1219.957961 1220.341067 1220.532141 1220.728185 1220.933858 1221.153034 1221.388621 1221.642433 1221.915108 1222.206078 1222.513588 1222.834777 1223.165798 1223.501992 1223.652952 1223.809167 1223.975427 1224.155702 1224.352964 1224.569053 1224.804598 1225.058990 1225.330406 1225.615891 1225.911489 1226.212415 1226.325594 1226.444095 1226.572732 1226.715492 1226.875363 1227.054199 1227.252639 1227.470083 1227.704714 1227.953578 1228.212719 1228.477354 1228.554026 1228.636206 1228.728727 1228.835591 1228.959800 1229.103220 1229.266497 1229.449038 1229.649026 1229.863512 1230.088538 1230.319316 1230.362039 1230.410548 1230.469687 1230.543474 1230.634921 1230.745901 1230.877068 1231.027828 1231.196370 1231.379741 1231.573980 1231.774296 1231.785668 1231.803209 1231.831828 1231.875597 1231.937577 1232.019678 1232.122577 1232.245692 1232.387205 1232.544141 1232.712504 1232.887452 1232.876589 1232.872118 1232.878711 1232.900213 1232.939472 1232.998222 1233.076999 1233.175131 1233.290765 1233.420959 1233.561812 1233.708652 1233.663140 1233.624331 1233.597621 1233.587610 1233.597901 1233.630958 1233.688002 1233.768973 1233.872536 1233.996149 1234.136182 1234.288086 1234.261459 1234.246716 1234.248435 1234.270273 1234.314797 1234.383370 1234.476079 1234.591728 1234.727877 1234.880945 1235.046352 1235.218721 1235.198690 1235.184933 1235.182158 1235.194297 1235.224326 1235.274126 1235.344398 1235.434627 1235.543101 1235.666986 1235.802451 1235.944832 1235.901302 1235.864905 1235.840522 1235.832186 1235.842904 1235.874523 1235.927651 1236.001627 1236.094555 1236.203380 1236.324031 1236.451595 1236.390013 1236.335265 1236.292184 1236.264767 1236.256000 1236.267722 1236.300545 1236.353827 1236.425699 1236.513144 1236.612134 1236.717807 1236.635065 1236.558972 1236.494354 1236.445208 1236.414515 1236.404110 1236.414604 1236.445350 1236.494479 1236.558971 1236.634798 1236.717095 1236.610836 1236.511012 1236.422449 1236.349138 1236.294058 1236.259042 1236.244698 1236.250378 1236.274212 1236.313182 1236.363259 1236.419581 1236.287239 1236.161110 1236.046016 1235.945944 1235.863870 1235.801626 1235.759818 1235.737801 1235.733703 1235.744509 1235.766195 1235.793903 1235.633983 1235.480000 1235.336708 1235.208036 1235.096908 1235.005116 1234.933242 1234.880630 1234.845418 1234.824618 1234.814249 1234.809515 1234.613448 1234.423293 1234.244100 1234.080079 1233.934414 1233.809119 1233.704946 1233.621352 1233.556516 1233.507415 1233.469949 1233.439117 1233.225160 1233.017022 1232.818869 1232.633996 1232.464669 1232.312011 1232.175944 1232.055178 1231.947265 1231.848691 1231.755029 1231.661133 1231.367651 1231.073981 1230.785284 1230.506002 1230.239658 1229.988714 1229.754470 1229.537021 1229.335260 1229.146944 1228.968801 1228.796696 1228.442354 1228.094957 1227.759501 1227.440086 1227.139737 1226.860279 1226.602263 1226.364954 1226.146358 1225.943323 1225.751674 1225.566405 1225.191555 1224.822897 1224.465209 1224.122459 1223.797627 1223.492574 1223.207962 1222.943229 1222.696610 1222.465220 1222.245182 1222.031799 1221.633399 1221.241828 1220.861911 1220.497649 1220.152039 1219.826944 1219.523017 1219.239671 1218.975109 1218.726404 1218.489629 1218.260039 1217.845229 1217.437722 1217.042334 1216.663055 1216.302877 1215.963659 1215.646054 1215.349475 1215.072129 1214.811095 1214.562455 1214.321475 1213.896197 1213.478696 1213.073778 1212.685423 1212.316614 1211.969206 1211.643848 1211.339954 1211.055733 1210.788271 1210.533658 1210.287166 1209.857304 1209.435680 1209.027085 1208.635489 1208.263865 1207.914062 1207.586723 1207.281262 1206.995891 1206.727698 1206.472782 1206.226425 1205.797773 1205.377781 1204.971215 1204.582022 1204.213158 1203.866456 1203.542553 1203.240857 1202.959583 1202.695826 1202.445695 1202.204489 1201.781303 1201.367188 1200.966938 1200.584531 1200.222947 1199.884047 1199.568485 1199.275685 1199.003864 1198.750115 1198.510535 1198.280395 1197.870327 1197.469666 1197.083058 1196.714325 1196.366298 1196.040691 1195.738025 1195.457606 1195.197555 1194.954892 1194.725664 1194.505127 1194.102901 1193.709448 1193.329541 1192.967162 1192.625316 1192.305910 1192.009664 1191.736087 1191.483501 1191.249116 1191.029157 1190.819037 1190.430471 1190.051938 1189.688171 1189.343082 1189.019589 1188.719492 1188.443391 1188.190665 1187.959499 1187.746966 1187.549156 1187.361355 1186.994537 1186.637739 1186.295643 1185.972125 1185.670084 1185.391312 1185.136418 1184.904801 1184.694676 1184.503155 1184.326376 1184.159672 1183.815062 1183.480573 1183.160878 1182.859841 1182.580349 1182.324185 1182.091947 1181.883024 1181.695623 1181.526850 1181.372833 1181.228901 1180.907352 1180.595908 1180.299222 1180.021143 1179.764544 1179.531195 1179.321687 1179.135403 1178.970547 1178.824224 1178.692567 1178.570906 1178.271977 1177.983048 1177.708755 1177.452928 1177.218428 1177.007014 1176.819267 1176.654567 1176.511115 1176.386016 1176.275403 1176.174614 1175.896811 1175.628818 1175.375252 1175.139931 1174.925700 1174.734309 1174.566333 1174.421143 1174.296942 1174.190835 1174.098957 1174.016650 1173.757494 1173.507881 1173.272412 1173.054892 1172.858153 1172.683935 1172.532807 1172.404137 1172.296126 1172.205879 1172.129537 1172.062447 1171.818601 1171.583967 1171.363129 1171.159878 1170.977037 1170.816336 1170.678337 1170.562408 1170.466747 1170.388464 1170.323703 1170.267816 1170.035200 1169.811412 1169.601023 1169.407813 1169.234597 1169.083099 1168.953878 1168.846300 1168.758567 1168.687792 1168.630127 1168.580933 1168.355012 1168.137510 1167.932987 1167.745212 1167.576990 1167.430042 1167.304921 1167.200995 1167.116466 1167.048451 1166.993110 1166.945810 1166.721757 1166.505690 1166.302159 1166.114923 1165.946779 1165.799443 1165.673468 1165.568220 1165.481905 1165.411648 1165.353614 1165.303183 1165.075965 1164.856295 1164.648713 1164.456972 1164.283864 1164.131101 1163.999236 1163.887640 1163.794523 1163.717019 1163.651303 1163.592768 1163.357436 1163.129236 1162.912700 1162.711575 1162.528650 1162.365636 1162.223088 1162.100379 1161.995729 1161.906280 1161.828220 1161.756956 1161.508926 1161.267652 1161.037662 1160.822695 1160.625540 1160.447908 1160.290358 1160.152268 1160.031868 1159.926310 1159.831797 1159.743751 1159.479036 1159.220763 1158.973453 1158.740844 1158.525723 1158.329803 1158.153648 1157.996644 1157.857031 1157.731973 1157.617690 1157.509619 1157.225063 1156.946711 1156.679082 1156.425912 1156.189989 1155.973030 1155.775603 1155.597105 1155.435785 1155.288825 1155.152458 1155.022143 1154.716838 1154.417531 1154.128667 1153.853918 1153.596021 1153.356651 1153.136356 1152.934531 1152.749444 1152.578315 1152.417442 1152.262361 1151.928545 1151.600882 1151.284149 1150.982338 1150.698473 1150.434486 1150.191120 1149.967901 1149.763152 1149.574064 1149.396810 1149.226711 1148.887411 1148.554420 1148.231534 1147.921726 1147.627007 1147.348318 1147.085482 1146.837204 1146.601110 1146.373854 1146.151252 1145.928467 1145.518578 1145.108625 1144.703513 1144.307492 1143.923974 1143.555395 1143.203115 1142.867380 1142.547318 1142.240997 1141.945525 1141.657198 1141.201457 1140.753940 1140.319375 1139.901636 1139.503584 1139.126951 1138.772271 1138.438869 1138.124893 1137.827404 1137.542509 1137.265540 1136.813383 1136.369016 1135.936926 1135.520843 1135.123581 1134.746915 1134.391502 1134.056863 1133.741401 1133.442475 1133.156521 1132.879217 1132.432140 1131.993975 1131.569262 1131.161770 1130.774336 1130.408736 1130.065620 1129.744481 1129.443683 1129.160537 1128.891425 1128.631960 1128.202782 1127.783448 1127.378489 1126.991668 1126.625815 1126.282703 1125.962979 1125.666135 1125.390538 1125.133501 1124.891408 1124.659881 1124.259854 1123.870578 1123.496572 1123.141591 1122.808453 1122.498928 1122.213656 1121.952127 1121.712704 1121.492700 1121.288500 1121.095723 1120.735560 1120.386988 1120.054517 1119.741885 1119.451905 1119.186333 1118.945804 1118.729801 1118.536680 1118.363751 1118.207395 1118.063229 1117.751989 1117.453116 1117.171141 1116.909826 1116.671997 1116.459426 1116.272749 1116.111448 1115.973868 1115.857298 1115.758086 1115.671810 1115.421465 1115.183991 1114.963725 1114.764244 1114.588204 1114.437232 1114.311851 1114.211464 1114.134384 1114.077913 1114.038467 1114.011740 1113.816659 1113.634857 1113.471178 1113.329731 1113.213707 1113.125248 1113.065363 1113.033891 1113.029511 1113.049808 1113.091388 1113.150024 1113.050584 1112.968214 1112.907148 1112.870792 1112.861570 1112.880811 1112.928686 1113.004196 1113.105209 1113.228541 1113.370098 1113.525043 1113.511792 1113.511395 1113.528166 1113.565699 1113.626700 1113.712864 1113.824797 1113.961984 1114.122811 1114.304628 1114.503871 1114.716213 1114.764796 1114.826565 1114.905951 1115.006610 1115.131260 1115.281564 1115.458047 1115.660081 1115.885902 1116.132693 1116.396702 1116.673407 1116.783486 1116.906103 1117.045645 1117.205735 1117.389069 1117.597294 1117.830933 1118.089358 1118.370818 1118.672510 1118.990701 1119.320891 1119.484255 1119.659466 1119.850902 1120.062181 1120.295991 1120.553971 1120.836633 1121.143342 1121.472333 1121.820790 1122.184969 1122.560353 1122.767884 1122.986444 1123.220408 1123.473392 1123.748077 1124.046099 1124.367962 1124.713022 1125.079507 1125.464590 1125.864512 1126.274747 1126.515964 1126.767298 1127.033126 1127.317061 1127.621787 1127.948934 1128.299004 1128.671347 1129.064183 1129.474679 1129.899064 1130.332801 1130.597410 1130.871103 1131.158197 1131.462248 1131.785889 1132.130709 1132.497184 1132.884650 1133.291327 1133.714399 1134.150130 1134.594031 1134.863583 1135.141408 1135.432142 1135.739649 1136.066840 1136.415542 1136.786412 1137.178899 1137.591261 1138.020635 1138.463145 1138.914073 1139.197878 1139.489044 1139.791294 1140.107540 1140.439734 1140.788775 1141.154443 1141.535403 1141.929246 1142.332581 1142.741178 1143.150146 1143.373201 1143.596475 1143.824756 1144.062175 1144.312021 1144.576607 1144.857170 1145.153827 1145.465579 1145.790361 1146.125148 1146.466096 1146.637888 1146.816599 1147.006862 1147.212464 1147.436185 1147.679675 1147.943391 1148.226574 1148.527290 1148.842510 1149.168245 1149.499725 1149.652826 1149.811282 1149.979517 1150.161198 1150.359071 1150.574837 1150.809073 1151.061207 1151.329540 1151.611319 1151.902858 1152.199697 1152.321501 1152.448605 1152.585508 1152.735930 1152.902653 1153.087392 1153.290720 1153.512044 1153.749628 1154.000669 1154.261421 1154.527357 1154.616646 1154.711076 1154.815159 1154.932628 1155.066276 1155.217825 1155.387857 1155.575784 1155.779874 1155.997325 1156.224391 1156.456547 1156.511707 1156.571932 1156.641744 1156.724889 1156.824167 1156.941312 1157.076909 1157.230377 1157.399986 1157.582937 1157.775484 1157.973103 1157.993492 1158.018944 1158.053992 1158.102391 1158.166952 1158.249414 1158.350370 1158.469241 1158.604301 1158.752754 1158.910854 1159.074078 1159.059774 1159.050608 1159.051133 1159.065123 1159.095402 1159.143723 1159.210686 1159.295718 1159.397096 1159.512022 1159.636745 1159.766733 1159.719752 1159.678009 1159.646019 1159.627516 1159.625292 1159.641067 1159.675422 1159.727769 1159.796380 1159.878467 1159.970300 1160.067383 1159.986290 1159.910605 1159.844986 1159.793316 1159.758533 1159.742504 1159.745941 1159.768379 1159.808192 1159.862668 1159.928136 1160.000122 1159.896698 1159.799828 1159.714018 1159.642975 1159.589445 1159.555084 1159.540395 1159.544696 1159.566153 1159.601862 1159.647970 1159.699850 1159.573870 1159.453573 1159.343495 1159.247397 1159.168105 1159.107380 1159.065842 1159.042943 1159.036992 1159.045230 1159.063950 1159.088667 1158.937029 1158.791480 1158.656589 1158.536141 1158.432969 1158.348829 1158.284325 1158.238887 1158.210788 1158.197232 1158.194470 1158.197971 1158.024825 1157.857986 1157.702016 1157.560693 1157.436848 1157.332238 1157.247470 1157.181977 1157.134044 1157.100882 1157.078755 1157.063146 1156.871404 1156.686238 1156.512211 1156.353099 1156.211735 1156.089874 1155.988126 1155.905924 1155.841556 1155.792237 1155.754232 1155.723029 1155.516079 1155.315994 1155.127334 1154.953877 1154.798453 1154.662819 1154.547584 1154.452184 1154.374909 1154.312975 1154.262653 1154.219434 1154.000889 1153.789514 1153.589868 1153.405726 1153.239918 1153.094201 1152.969184 1152.864306 1152.777857 1152.707057 1152.648180 1152.596722 1152.371221 1152.153166 1151.947062 1151.756642 1151.584695 1151.432947 1151.301991 1151.191257 1151.099041 1151.022585 1150.958194 1150.901411 1150.668210 1150.442916 1150.230260 1150.034191 1149.857694 1149.702668 1149.569831 1149.458701 1149.367602 1149.293748 1149.233350 1149.181792 1148.960492 1148.747487 1148.546834 1148.361779 1148.194607 1148.046531 1147.917634 1147.806861 1147.712052 1147.630040 1147.556785 1147.487549 1147.236319 1146.989212 1146.751045 1146.525936 1146.317132 1146.126866 1145.956272 1145.805344 1145.672949 1145.556881 1145.453977 1145.360266 1145.098045 1144.845764 1144.608115 1144.388956 1144.191149 1144.016440 1143.865389 1143.737351 1143.630508 1143.541955 1143.467830 1143.403488 1143.165156 1142.936504 1142.722053 1142.525562 1142.349857 1142.196707 1142.066752 1141.959474 1141.873222 1141.805287 1141.752022 1141.709008 1141.495494 1141.292384 1141.104237 1140.934835 1140.787015 1140.662546 1140.562054 1140.484997 1140.429689 1140.393378 1140.372370 1140.362190 1140.181229 1140.011188 1139.856622 1139.721304 1139.608065 1139.518667 1139.453730 1139.412706 1139.393901 1139.394558 1139.410973 1139.438666 1139.296006 1139.164696 1139.049280 1138.953525 1138.880255 1138.831223 1138.807043 1138.807157 1138.829864 1138.872397 1138.931042 1139.001311 1138.901513 1138.813386 1138.741466 1138.689513 1138.660340 1138.655696 1138.676182 1138.721231 1138.789134 1138.877112 1138.981441 1139.097620 1139.043669 1139.001599 1138.975948 1138.970477 1138.988002 1139.030267 1139.097869 1139.190233 1139.305637 1139.441286 1139.593437 1139.757564 1139.752158 1139.758670 1139.781581 1139.824594 1139.890471 1139.980908 1140.096464 1140.236533 1140.399376 1140.582191 1140.781242 1140.992026 1141.031653 1141.083116 1141.151041 1141.239283 1141.350753 1141.487294 1141.649596 1141.837174 1142.048385 1142.280499 1142.529825 1142.791870 1142.885232 1142.991241 1143.114347 1143.258198 1143.425481 1143.617801 1143.835600 1144.078145 1144.343548 1144.628850 1144.930145 1145.242753 1145.383163 1145.534640 1145.701657 1145.887914 1146.096180 1146.328159 1146.584418 1146.864353 1147.166222 1147.487208 1147.823549 1148.170700 1148.346259 1148.532552 1148.734081 1148.954569 1149.196786 1149.462425 1149.752024 1150.064944 1150.399391 1150.752492 1151.120422 1151.498569 1151.703557 1151.918604 1152.148204 1152.396072 1152.664969 1152.956585 1153.271454 1153.608933 1153.967226 1154.343458 1154.733799 1155.133636 1155.359473 1155.594641 1155.843638 1156.110178 1156.397023 1156.705860 1157.037219 1157.390451 1157.763752 1158.154239 1158.558070 1158.970619 1159.208067 1159.454060 1159.713098 1159.988900 1160.284229 1160.600771 1160.939055 1161.298428 1161.677081 1162.072121 1162.479700 1162.895181 1163.134422 1163.381387 1163.640585 1163.915737 1164.209611 1164.523895 1164.859119 1165.214628 1165.588608 1165.978162 1166.379436 1166.787784 1167.019456 1167.257989 1167.507860 1167.772760 1168.055432 1168.357543 1168.679607 1169.020963 1169.379801 1169.753235 1170.137432 1170.527776 1170.737942 1170.954278 1171.181463 1171.423382 1171.682953 1171.961990 1172.261124 1172.579766 1172.916130 1173.267303 1173.629368 1173.997571 1174.189796 1174.387483 1174.594754 1174.814916 1175.050304 1175.302167 1175.570602 1175.854543 1176.151797 1176.459133 1176.772417 1177.086792 1177.213527 1177.341244 1177.474723 1177.618021 1177.774297 1177.945672 1178.133137 1178.336521 1178.554498 1178.784653 1179.023595 1179.267113 1179.333201 1179.404323 1179.485168 1179.579590 1179.690435 1179.819422 1179.967068 1180.132669 1180.314330 1180.509049 1180.712847 1180.920951 1180.945998 1180.975118 1181.012876 1181.063052 1181.128478 1181.210905 1181.310930 1181.427965 1181.560265 1181.705001 1181.858385 1182.015841 1181.992402 1181.973055 1181.962409 1181.964281 1181.981527 1182.015910 1182.068027 1182.137283 1182.221912 1182.319062 1182.424914 1182.534857 1182.463119 1182.395476 1182.336549 1182.290163 1182.259183 1182.245379 1182.249358 1182.270529 1182.307136 1182.356331 1182.414304 1182.476450 1182.356989 1182.241727 1182.135293 1182.041522 1181.963282 1181.902355 1181.859350 1181.833686 1181.823613 1181.826292 1181.837917 1181.853894 1181.688483 1181.527470 1181.375489 1181.236381 1181.113021 1181.007193 1180.919517 1180.849416 1180.795148 1180.753878 1180.721812 1180.694361 1180.486441 1180.283172 1180.089159 1179.908219 1179.743205 1179.595887 1179.466876 1179.355594 1179.260310 1179.178207 1179.105519 1179.037692 1178.787977 1178.543358 1178.308595 1178.087651 1177.883517 1177.698079 1177.532038 1177.384879 1177.254893 1177.139252 1177.034129 1176.934873 1176.658470 1176.387615 1176.126617 1175.878972 1175.647202 1175.432738 1175.235856 1175.055661 1174.890124 1174.736166 1174.589797 1174.446289 1174.117797 1173.792291 1173.474587 1173.168764 1172.877986 1172.604367 1172.348887 1172.111359 1171.890438 1171.683698 1171.487739 1171.298353 1170.933432 1170.575649 1170.229736 1169.899594 1169.588131 1169.297136 1169.027206 1168.777729 1168.546909 1168.331854 1168.128705 1167.932811 1167.558231 1167.190909 1166.835459 1166.495711 1166.174545 1165.873765 1165.594022 1165.334787 1165.094381 1164.870046 1164.658071 1164.453963 1164.074061 1163.702204 1163.343023 1163.000359 1162.677096 1162.375033 1162.094812 1161.835887 1161.596559 1161.374044 1161.164605 1160.963719 1160.587451 1160.219874 1159.865608 1159.528481 1159.211368 1158.916058 1158.643187 1158.392206 1158.161410 1157.948016 1157.748287 1157.557702 1157.192641 1156.836848 1156.494926 1156.170691 1155.867004 1155.585646 1155.327242 1155.091238 1154.875925 1154.678517 1154.495275 1154.321679 1153.974430 1153.636931 1153.313770 1153.008747 1152.724710 1152.463427 1152.225515 1152.010412 1151.816403 1151.640697 1151.479555 1151.328454 1151.003797 1150.689297 1150.389559 1150.108399 1149.848678 1149.612174 1149.399508 1149.210113 1149.042267 1148.893162 1148.759031 1148.635320 1148.340737 1148.056466 1147.786925 1147.535753 1147.305648 1147.098252 1146.914076 1146.752485 1146.611727 1146.489013 1146.380644 1146.282182 1146.008731 1145.745678 1145.497918 1145.269588 1145.063889 1144.882951 1144.727745 1144.598051 1144.492466 1144.408477 1144.342574 1144.290405 1144.072940 1143.869199 1143.683498 1143.519314 1143.379123 1143.264290 1143.175003 1143.110255 1143.067889 1143.044674 1143.036452 1143.038308 1142.865458 1142.702175 1142.552846 1142.421122 1142.309744 1142.220424 1142.153761 1142.109211 1142.085109 1142.078741 1142.086458 1142.103839 1141.950912 1141.807740 1141.678818 1141.567854 1141.477603 1141.409745 1141.364812 1141.342159 1141.339994 1141.355454 1141.384731 1141.423239 1141.289094 1141.164060 1141.052587 1140.958353 1140.884090 1140.831472 1140.801029 1140.792129 1140.803001 1140.830812 1140.871788 1140.921381 1140.798622 1140.684387 1140.583118 1140.498484 1140.433216 1140.388979 1140.366304 1140.364558 1140.381974 1140.415720 1140.462028 1140.516358 1140.397999 1140.287568 1140.189503 1140.107467 1140.044188 1140.001332 1139.979430 1139.977853 1139.994835 1140.027555 1140.072250 1140.124391 1140.003518 1139.890003 1139.788282 1139.702017 1139.633936 1139.585706 1139.557862 1139.549781 1139.559705 1139.584821 1139.621378 1139.664856 1139.536802 1139.415502 1139.305291 1139.209740 1139.131501 1139.072185 1139.032290 1139.011185 1139.007130 1139.017358 1139.038193 1139.065221 1138.914531 1138.770453 1138.637804 1138.520621 1138.421979 1138.343851 1138.287021 1138.251041 1138.234243 1138.233805 1138.245864 1138.265674 1138.120735 1137.982212 1137.853511 1137.737204 1137.634897 1137.547137 1137.473374 1137.411965 1137.360231 1137.314563 1137.270570 1137.223267 1136.984440 1136.742359 1136.502043 1136.267917 1136.043620 1135.831864 1135.634322 1135.451580 1135.283123 1135.127385 1134.981833 1134.843104 1134.540453 1134.246072 1133.964730 1133.700317 1133.455681 1133.232516 1133.031301 1132.851287 1132.690538 1132.546020 1132.413743 1132.288942 1131.988066 1131.694353 1131.412233 1131.145396 1130.896629 1130.667694 1130.459250 1130.270830 1130.100862 1129.946741 1129.804945 1129.671198 1129.368334 1129.073785 1128.792075 1128.526958 1128.281260 1128.056754 1127.854087 1127.672756 1127.511130 1127.366530 1127.235347 1127.113209 1126.821192 1126.538396 1126.269343 1126.017789 1125.786560 1125.577430 1125.391045 1125.226904 1125.083376 1124.957785 1124.846522 1124.745215 1124.474998 1124.214908 1123.969466 1123.742422 1123.536602 1123.353774 1123.194585 1123.058529 1122.943973 1122.848238 1122.767710 1122.698016 1122.460306 1122.233587 1122.022371 1121.830406 1121.660509 1121.514445 1121.392854 1121.295223 1121.219914 1121.164239 1121.124579 1121.096551 1120.900410 1120.716082 1120.548121 1120.400314 1120.275508 1120.175490 1120.100910 1120.051255 1120.024874 1120.019049 1120.030118 1120.053643 1119.912619 1119.783921 1119.671857 1119.579975 1119.510905 1119.466246 1119.446504 1119.451064 1119.478233 1119.525313 1119.588727 1119.664192 1119.569053 1119.486678 1119.422064 1119.379471 1119.362250 1119.372695 1119.411960 1119.480014 1119.575652 1119.696555 1119.839397 1120.000000 1120.003417 1120.024593 1120.067716 1120.136125 1120.232152 1120.357013 1120.510753 1120.692228 1120.899153 1121.128186 1121.375072 1121.634817 1121.723718 1121.824760 1121.942247 1122.079776 1122.240062 1122.424816 1122.634664 1122.869112 1123.126566 1123.404400 1123.699063 1124.006243 1124.148403 1124.303201 1124.475105 1124.667798 1124.884020 1125.125439 1125.392580 1125.684800 1126.000311 1126.336261 1126.688853 1127.053514 1127.249329 1127.457019 1127.680998 1127.924913 1128.191475 1128.482338 1128.798023 1129.137895 1129.500180 1129.882049 1130.279732 1130.688686 1130.928603 1131.179612 1131.446125 1131.731781 1132.039285 1132.370284 1132.725289 1133.103651 1133.503586 1133.922247 1134.355849 1134.799832 1135.073550 1135.357445 1135.655926 1135.972630 1136.310260 1136.670455 1137.053720 1137.459397 1137.885690 1138.329742 1138.787750 1139.255141 1139.550919 1139.855860 1140.174371 1140.510094 1140.865727 1141.242909 1141.642142 1142.062759 1142.502959 1142.959871 1143.429685 1143.907812 1144.213605 1144.527445 1144.853706 1145.195995 1145.556983 1145.938285 1146.340383 1146.762603 1147.203141 1147.659134 1148.126787 1148.601538 1148.900125 1149.205770 1149.523047 1149.855753 1150.206732 1150.577745 1150.969385 1151.381049 1151.810952 1152.256204 1152.712923 1153.176403 1153.467511 1153.764638 1154.071808 1154.392240 1154.728198 1155.080878 1155.450343 1155.835513 1156.234198 1156.643187 1157.058383 1157.474976 1157.707167 1157.940577 1158.179885 1158.429061 1158.691189 1158.968336 1159.261457 1159.570361 1159.893723 1160.229143 1160.573262 1160.921912 1161.095919 1161.274843 1161.463276 1161.664982 1161.882739 1162.118212 1162.371884 1162.643032 1162.929764 1163.229094 1163.537077 1163.848981 1163.980209 1164.115060 1164.258002 1164.412736 1164.582024 1164.767567 1164.969929 1165.188507 1165.421558 1165.666272 1165.918894 1166.174890 1166.251972 1166.332386 1166.420653 1166.520514 1166.634759 1166.765105 1166.912122 1167.075199 1167.252580 1167.441429 1167.637964 1167.837617 1167.857214 1167.879882 1167.910158 1167.951798 1168.007606 1168.079312 1168.167497 1168.271564 1168.389765 1168.519276 1168.656324 1168.796350 1168.756092 1168.718799 1168.689024 1168.670536 1168.666154 1168.677621 1168.705529 1168.749295 1168.807180 1168.876373 1168.953111 1169.032849 1168.932287 1168.834745 1168.744790 1168.666202 1168.601816 1168.553385 1168.521516 1168.505635 1168.504017 1168.513863 1168.531422 1168.552162 1168.394028 1168.239063 1168.091774 1167.955892 1167.834205 1167.728437 1167.639175 1167.565847 1167.506745 1167.459108 1167.419242 1167.382688 1167.163493 1166.948027 1166.741145 1166.546908 1166.368407 1166.207625 1166.065352 1165.941149 1165.833363 1165.739195 1165.654823 1165.575563 1165.323365 1165.075486 1164.835797 1164.607343 1164.392193 1164.191339 1164.004642 1163.830830 1163.667547 1163.511446 1163.358338 1163.203369 1162.857541 1162.510032 1162.165842 1161.829306 1161.503909 1161.192151 1160.895443 1160.614066 1160.347171 1160.092835 1159.848164 1159.609437 1159.199860 1158.797380 1158.406819 1158.032140 1157.676275 1157.341014 1157.026936 1156.733392 1156.458539 1156.199436 1155.952170 1155.712044 1155.293416 1154.881852 1154.481933 1154.097476 1153.731368 1153.385439 1153.060391 1152.755765 1152.469970 1152.200357 1151.943339 1151.694554 1151.272900 1150.859797 1150.459882 1150.077011 1149.714089 1149.372948 1149.054273 1148.757575 1148.481219 1148.222497 1147.977757 1147.742567 1147.334717 1146.936656 1146.553013 1146.187632 1145.843408 1145.522167 1145.224584 1144.950165 1144.697266 1144.463175 1144.244235 1144.036011 1143.656456 1143.287833 1142.934753 1142.601049 1142.289602 1142.002224 1141.739580 1141.501165 1141.285324 1141.089337 1140.909537 1140.741480 1140.403266 1140.076979 1139.767212 1139.477780 1139.211548 1138.970313 1138.754724 1138.564261 1138.397258 1138.250980 1138.121746 1138.005100 1137.717651 1137.443019 1137.185871 1136.950086 1136.738584 1136.553201 1136.394606 1136.262276 1136.154523 1136.068561 1136.0