New loadshape.LS_PhaseA npts=1440 sinterval=60 pmult=(771.344055 769.460178 768.336102 767.977930 768.376557 769.506750 771.326606 773.777461 776.784300 780.256681 784.090210 788.775008 793.529572 798.172806 802.527128 806.425351 809.717351 812.276273 814.004021 814.835823 814.743652 812.174514 808.872973 805.053710 800.950551 796.804652 792.852433 789.313763 786.380858 784.208345 782.904907 784.397146 786.656718 789.475452 792.608672 795.788073 798.735696 801.178425 802.862417 803.566883 803.116638 799.130919 794.012826 787.959618 781.216558 774.065532 766.812245 759.772503 753.258130 747.563039 742.950012 741.012119 740.420422 741.170726 743.207541 746.427639 750.685308 755.799059 761.559535 767.738315 774.097290 779.755714 785.187481 790.232274 794.748308 798.616466 801.743682 804.065476 805.547577 806.186583 806.009644 804.406066 802.179409 799.491157 796.515850 793.433017 790.419020 787.639141 785.240189 783.343929 782.041565 782.420914 783.382906 784.824959 786.617639 788.611982 790.647637 792.561478 794.196338 795.409506 796.080627 794.652748 792.661966 790.208554 787.417995 784.434422 781.413323 778.513803 775.890723 773.687034 772.026611 771.964607 772.528514 773.675283 775.335640 777.417828 779.812209 782.396552 785.041767 787.617882 790.000000 791.073915 791.828032 792.264468 792.398123 792.254383 791.866479 791.272667 790.513337 789.628232 788.653870 788.245208 787.748934 787.130680 786.354093 785.383959 784.189497 782.747640 781.046153 779.086438 776.885864 773.595955 770.229754 766.930358 763.848985 761.138960 758.949480 757.419406 756.671293 756.805884 757.897278 760.357456 763.794534 768.153927 773.349463 779.265830 785.761998 792.675503 799.827464 807.028169 814.083069 820.676324 826.758695 832.167325 836.756821 840.403901 843.011473 844.512006 844.870082 844.084021 842.186523 838.483321 833.897214 828.618680 822.856452 816.829184 810.756886 804.852397 799.313225 794.314027 790.000000 787.192763 785.191150 783.968097 783.462032 783.581077 784.208344 785.208083 786.432469 787.728746 788.946472 789.151601 789.081890 788.696985 787.974129 786.908166 785.510940 783.810134 781.847631 779.677455 777.363403 775.140466 772.904632 770.720255 768.652773 766.766929 765.125075 763.785581 762.801395 762.218769 762.076172 762.204220 762.840188 764.010468 765.729014 767.996297 770.798611 774.107758 777.881121 782.062130 786.581116 790.973107 795.560914 800.275170 805.036064 809.753691 814.328841 818.654236 822.616256 826.097124 828.977539 831.747603 833.637699 834.494327 834.182811 832.594361 829.652639 825.319554 819.600027 812.545511 804.256042 793.339191 781.662289 769.590386 757.511253 745.821004 734.909299 725.144690 716.860595 710.342439 705.816406 704.906580 706.103061 709.292157 714.296314 720.883125 728.776122 737.666937 747.228362 757.127844 767.040894 775.386973 783.285481 790.609723 797.269554 803.211530 808.417751 812.903473 816.713656 819.918583 822.608765 824.782668 826.663881 828.378686 830.049860 831.790368 833.697615 835.848442 838.295076 841.062182 844.145142 848.591483 853.169210 857.701308 861.999317 865.873683 869.144327 871.651011 873.263040 873.887887 873.478333 869.540076 864.837515 859.682813 854.413543 849.375972 844.907834 841.321290 838.886780 837.818433 838.261658 843.140317 849.336897 856.517482 864.293401 872.240249 879.918468 886.894642 892.762696 897.164125 899.806458 897.206471 892.801799 886.841116 879.644110 871.585378 863.076285 854.545541 846.419276 839.101389 832.954956 830.854932 830.242280 831.062937 833.201460 836.489812 840.718115 845.646882 851.020210 856.579350 862.076111 864.983377 867.612373 870.000011 872.208353 874.318180 876.421711 878.614820 880.989121 883.624312 886.581116 891.390134 896.432521 901.561875 906.614153 911.415277 915.789412 919.567575 922.596243 924.745576 925.916931 924.674737 922.494954 919.514890 915.903959 911.856683 907.584805 903.308819 899.249200 895.617664 892.608765 890.993861 890.255250 890.445712 891.583324 893.651527 896.600319 900.348483 904.786774 909.781925 915.181335 920.129274 925.198658 930.266125 935.203173 939.878156 944.158469 947.912887 951.014067 953.341182 954.782654 955.811622 955.724022 954.406749 951.773252 947.768996 942.376249 935.617974 927.560627 918.315699 908.039856 895.490269 882.472082 869.378929 856.618953 844.600074 833.715095 824.327165 816.756126 811.266208 808.055542 808.751113 811.765299 816.938433 824.044585 832.801990 842.885243 853.938776 865.591110 877.469377 889.213562 898.819355 907.807512 916.064522 923.514853 930.118663 935.868255 940.783495 944.906438 948.295441 951.019043 953.868914 956.131962 957.815674 958.924926 959.461991 959.427027 958.819022 957.637116 955.882219 953.558838 950.420389 946.766448 942.643407 938.105001 933.212390 928.034068 922.645563 917.128905 911.571820 906.066650 899.743549 893.743693 888.241806 883.399718 879.358984 876.234083 874.106442 873.019591 872.975648 873.933350 877.439120 881.599600 886.117429 890.679062 894.969724 898.688595 901.563632 903.365423 903.919518 903.116699 898.151198 892.068250 885.210578 877.967728 870.757031 864.003383 858.118652 853.481501 850.418447 849.186890 852.329752 857.351832 864.042728 872.114640 881.215322 890.943514 900.866288 910.537633 919.517598 927.391296 932.476233 935.893115 937.506866 937.252132 935.135692 931.236498 925.703357 918.750309 910.649841 901.724121 891.124249 880.541909 870.478787 861.424864 853.837863 848.123608 844.618014 843.571383 845.135626 849.354919 858.966287 870.746783 884.175984 898.660158 913.558116 928.208864 941.960006 954.195832 964.364032 972.000000 972.783803 970.787743 966.234978 959.447520 950.827148 940.833591 929.960877 918.712831 907.578721 897.010010 890.912407 885.784713 881.570469 878.151200 875.358162 872.986245 870.809334 868.596445 866.127883 863.210693 856.246914 848.879277 841.345022 833.910341 826.856009 820.462109 814.992526 810.679879 807.711576 806.217590 809.360243 813.764106 819.091534 824.961168 830.966644 836.696481 841.754331 845.778758 848.461764 849.565247 845.255378 839.464406 832.525996 824.834818 816.825862 808.952149 801.661762 795.375107 790.463357 787.228943 789.219025 792.935765 798.125127 804.459554 811.555171 818.991305 826.331521 833.145308 839.029571 843.629028 843.874849 842.584300 839.865532 835.897327 830.919701 825.222210 819.130431 812.991158 807.156856 801.969971 798.549121 796.293031 795.365050 795.875935 797.879168 801.368234 806.275956 812.475917 819.785937 827.973511 837.481937 847.228924 856.821610 865.861373 873.959710 880.753988 885.922523 889.198421 890.381666 889.348999 883.966130 876.554251 867.419384 856.931257 845.507198 833.594431 821.651405 810.128877 799.451414 790.000000 783.778234 779.205949 776.315885 775.070076 775.364335 777.035043 779.867937 783.608536 787.973795 792.664551 796.314712 799.790994 802.905147 805.488355 807.395723 808.509939 808.744030 808.043182 806.385598 803.782410 800.203314 795.798489 790.674765 784.962484 778.811048 772.384012 765.853864 759.396668 753.186707 747.391296 742.217755 737.748543 734.098670 731.360454 729.601312 728.862303 729.157451 730.473848 732.772517 735.989990 739.771772 744.305276 749.490443 755.211548 761.339820 767.736431 774.255786 780.749038 787.067753 793.067627 798.755593 803.852930 808.237304 811.805396 814.476307 816.194392 816.931423 816.687981 815.494004 813.408447 809.381778 804.755392 799.755632 794.615144 789.562358 784.811178 780.551289 776.939449 774.092123 772.079773 772.753647 774.100216 775.890513 777.867387 779.759762 781.297591 782.226872 782.324108 781.409601 779.359009 773.084702 765.881908 758.079314 750.046795 742.177010 734.865967 728.493336 723.403322 719.886901 718.166138 721.785499 727.100538 733.790997 741.476274 749.735224 758.127610 766.216321 773.589429 779.881174 784.791016 783.981708 781.797668 778.546039 774.594625 770.350663 766.237928 762.673164 760.042812 758.681037 758.849976 764.720174 772.024480 780.406124 789.440466 798.656711 807.561714 815.664890 822.503204 827.665225 830.813232 827.788523 822.706815 815.862860 807.632102 798.451985 788.800879 779.175459 770.067447 761.940619 755.208984 752.748069 752.061450 753.106620 755.761473 759.831805 765.061472 771.144777 777.740603 784.487728 791.020752 795.892742 799.972948 803.061521 804.998777 805.670501 805.011702 803.008735 799.699713 795.173201 789.565247 782.060770 773.947011 765.550281 757.207849 749.253427 742.002768 735.739928 730.704706 727.081742 724.991699 726.401999 729.211094 733.167014 737.966724 743.271145 748.721589 753.956954 758.630996 762.429032 765.083374 764.051104 761.734740 758.264750 753.829698 748.666105 743.046531 737.266351 731.629767 726.435597 721.963379 719.824890 718.737524 718.742834 719.837062 721.972624 725.061171 728.978071 733.568115 738.652209 744.034790 748.831504 753.580307 758.137026 762.363833 766.132762 769.328911 771.853236 773.624884 774.583011 774.688049 773.470415 771.422155 768.606039 765.100689 760.996624 756.392130 751.389144 746.089297 740.590290 734.982727 730.267489 725.518482 720.718263 715.846287 710.884057 705.820352 700.656248 695.409672 690.119226 684.847046 677.822123 671.171974 665.182964 660.142719 656.326651 653.984505 653.327437 654.516172 657.650727 662.762146 671.804256 682.487792 694.453306 707.288644 720.544933 733.753987 746.446503 758.170377 768.508476 777.095215 781.523896 783.864137 784.151229 782.490714 779.050740 774.052442 767.758765 760.462169 752.471711 744.099976 736.697449 729.404756 722.389892 715.792611 709.722326 704.257292 699.445026 695.303886 691.825692 688.979248 686.335402 684.245807 682.666938 681.546650 680.827556 680.450446 680.357649 680.496210 680.820767 681.296021 681.462925 681.783854 682.298180 683.054777 684.109222 685.520651 687.348393 689.648516 692.470426 695.853638 699.940805 704.615735 709.863655 715.652698 721.933702 728.640602 735.691408 742.989753 750.426970 757.884644 765.131046 772.154248 778.833748 785.051268 790.693903 795.657273 799.848597 803.189580 805.619036 807.095154 807.410367 806.770481 805.215448 802.806417 799.624346 795.768131 791.352280 786.504190 781.361091 776.066711 770.353209 764.814362 759.625425 754.949304 750.930907 747.692004 745.326790 743.898301 743.435814 743.933350 745.958618 748.775889 752.227186 756.131752 760.293498 764.508962 768.575501 772.299404 775.503655 778.035034 778.613392 778.405893 777.455558 775.833332 773.632890 770.964723 767.949739 764.712677 761.375582 758.051636 755.690005 753.445943 751.308447 749.250850 747.233756 745.208630 743.121871 740.919194 738.550097 735.972229 732.217262 728.290266 724.270184 720.245894 716.312694 712.568527 709.110091 706.028998 703.408134 701.318359 700.389797 700.038344 700.238455 700.951646 702.129352 703.716135 705.653082 707.881249 710.344996 712.995056 714.735528 716.681840 718.902128 721.466182 724.440100 727.880960 731.831760 736.316852 741.338088 746.871887 754.083140 761.575626 769.145685 776.577742 783.653731 790.162821 795.911059 800.730530 804.487665 807.090332 806.421678 804.733632 802.250188 799.224306 795.924848 792.622928 789.578238 787.025905 785.164421 784.145142 786.291556 789.220700 792.723588 796.550826 800.426303 804.062098 807.173990 809.496921 810.799787 810.898926 807.071698 802.082716 796.157464 789.569734 782.628537 775.663601 769.010062 762.992937 757.912019 754.027771 753.463095 754.283056 756.411708 759.720049 764.033519 769.141169 774.806141 780.776997 786.799483 792.628235 796.461214 799.818062 802.668294 805.009558 806.865077 808.280179 809.318094 810.055218 810.576085 810.968262 812.065037 813.131902 814.178165 815.208008 816.221670 817.216949 818.190945 819.141929 820.071223 820.984985 821.159389 821.414740 821.838361 822.517954 823.537756 824.974699 826.894730 829.349426 832.373042 835.980103 840.423575 845.391079 850.809782 856.587718 862.616465 868.774390 874.930386 880.947959 886.689549 892.020935 896.371244 900.108621 903.169388 905.503759 907.076429 907.866830 907.869108 907.091827 905.557422 903.301453 900.473601 897.021999 893.007254 888.499732 883.578701 878.331353 872.851706 867.239371 861.598197 856.034790 850.255264 844.802572 839.813601 835.416396 831.726165 828.841554 826.841320 825.781507 825.693227 826.581116 828.496315 831.308423 834.935175 839.270246 844.185918 849.536405 855.161720 860.891998 866.552143 871.966675 876.608282 880.702359 884.129675 886.785167 888.579958 889.443070 889.322830 888.187929 886.028151 882.854736 878.965206 874.127746 868.395147 861.842361 854.566531 846.686512 838.341829 829.691052 820.909543 812.186584 802.564811 793.502922 785.301849 778.246633 772.595103 768.567207 766.335371 766.016273 767.664362 771.267395 778.216432 786.766082 796.582437 807.287021 818.471771 829.715087 840.598384 850.722545 859.723676 867.287598 871.197177 873.407913 873.977933 873.028112 870.733777 867.314650 863.023449 858.133629 852.926719 847.679749 843.759641 840.194090 837.091709 834.529433 832.552136 831.173560 830.378490 830.126012 830.353702 830.982544 831.322172 831.932196 832.764319 833.768705 834.896249 836.100773 837.341044 838.582586 839.799214 840.974243 841.965501 842.924678 843.877972 844.860531 845.914966 847.089556 848.436212 850.008257 851.858087 854.034790 856.179718 858.762180 861.840248 865.455880 869.631206 874.365434 879.632517 885.379707 891.527076 897.968079 905.122160 912.239274 919.102614 925.487400 931.169180 935.932399 939.578946 941.936358 942.865401 942.266724 939.068656 934.371948 928.305073 921.037550 912.773831 903.746159 894.206654 884.418904 874.649333 865.158630 856.507756 848.577629 841.540632 835.539090 830.682223 827.044166 824.663103 823.541496 823.647392 824.916748 827.243876 830.527799 834.631113 839.400975 844.674706 850.285617 856.068846 861.867025 867.535593 872.947571 877.248154 881.169399 884.718118 887.921223 890.822108 893.476506 895.948008 898.303451 900.608344 902.922546 905.835233 908.798413 911.791080 914.781101 917.726976 920.580113 923.287476 925.794508 928.048175 930.000000 930.604918 930.920795 931.009131 930.934020 930.758137 930.538828 930.324506 930.151499 930.041539 930.000000 931.073108 932.085724 932.907580 933.405840 933.453402 932.937254 931.766502 929.879724 927.251323 923.896545 917.929821 911.565522 905.110396 898.892644 893.247633 888.503109 884.964480 882.900733 882.531551 884.016113 889.175851 896.143209 904.714288 914.624845 925.561489 937.174660 949.092874 960.937727 972.339102 982.950012 990.976718 997.774074 1003.259511 1007.401599 1010.218557 1011.775145 1012.178106 1011.570350 1010.124107 1008.033325 1005.850171 1003.409771 1000.895296 998.483486 996.338902 994.608672 993.417876 992.865670 993.022267 993.926819 994.986861 996.825435 999.433765 1002.766697 1006.742211 1011.242180 1016.114414 1021.175998 1026.217877 1031.010620 1036.740817 1041.616224 1045.274733 1047.380729 1047.641712 1045.823841 1041.765777 1035.390221 1026.712646 1015.846741 999.179374 981.166193 962.518533 943.987899 926.332730 910.284625 896.515316 885.605680 878.018033 874.072815 879.132357 887.544451 898.705662 911.896694 926.318145 941.129349 955.488753 968.594236 979.721767 988.260864 987.880724 984.653883 978.937872 971.220361 962.091628 952.213093 942.283198 933.002043 925.036192 918.985046 919.450263 922.347937 927.584728 934.954669 944.151005 954.781922 966.389484 978.471016 990.502078 1001.960144 1010.304091 1017.315710 1022.774131 1026.519236 1028.456174 1028.557680 1026.864171 1023.481662 1018.577567 1012.374573 1004.525812 996.000436 987.185057 978.476515 970.266452 962.926059 956.791561 952.150932 949.232305 948.194519 950.524846 954.702071 960.533985 967.764013 976.083058 985.143166 994.572505 1003.991082 1013.026639 1021.330139 1026.936759 1031.384192 1034.604750 1036.581769 1037.347311 1036.978251 1035.590943 1033.334707 1030.384419 1026.932495 1023.629904 1020.186589 1016.763183 1013.511608 1010.570533 1008.061471 1006.085591 1004.721344 1004.022923 1004.019592 1004.611952 1005.895518 1007.837052 1010.382389 1013.459058 1016.979478 1020.844613 1024.947975 1029.179821 ) qmult=(335.000000 334.290788 333.763942 333.425769 333.272324 333.290243 333.457954 333.747213 334.124871 334.554816 335.000000 335.123191 335.219269 335.283945 335.315708 335.315585 335.286785 335.234271 335.164271 335.083771 335.000000 335.084092 335.164215 335.232550 335.281839 335.306044 335.300983 335.264927 335.199097 335.108065 335.000000 334.608331 334.250210 333.966734 333.798754 333.784798 333.959028 334.349315 334.975517 335.848028 336.966660 338.621088 340.461548 342.429459 344.458856 346.479018 348.417316 350.202157 351.765931 353.047857 353.996597 354.254122 354.140769 353.670953 352.871328 351.779501 350.442396 348.914332 347.254874 345.526552 343.792511 342.173889 340.662059 339.304008 338.139761 337.201103 336.510595 336.080896 335.914429 336.003393 336.330124 337.021103 337.876155 338.840992 339.857620 340.866926 341.811302 342.637219 343.297652 343.754260 343.979248 343.556052 342.916395 342.103008 341.167543 340.167929 339.165500 338.221993 337.396554 336.742857 336.306458 336.508736 336.952971 337.617523 338.470687 339.472430 340.576436 341.732398 342.888430 343.993537 345.000015 345.482398 345.822578 346.025615 346.102625 346.069697 345.946632 345.755548 345.519445 345.260762 345.000015 345.045063 345.093741 345.131019 345.139616 345.101217 344.997768 344.812799 344.532697 344.147890 343.653854 342.642872 341.566188 340.470898 339.406078 338.420300 337.559137 336.862748 336.363660 336.084827 336.038071 336.700538 337.541152 338.495481 339.492029 340.455739 341.311680 341.988766 342.423368 342.562663 342.367584 341.179903 339.684154 337.945227 336.040170 334.054469 332.078002 330.200837 328.509022 327.080561 325.981705 325.856780 326.095495 326.664816 327.517928 328.596983 329.836247 331.165545 332.513827 333.812734 335.000000 335.421667 335.689211 335.823333 335.853381 335.815156 335.748460 335.694481 335.693148 335.780561 335.986618 336.819065 337.761666 338.776216 339.818266 340.839461 341.790098 342.621783 343.290076 343.757017 343.993408 343.491197 342.775849 341.893392 340.897971 339.849271 338.809709 337.841520 337.003833 336.349872 335.924377 336.089560 336.509945 337.167067 338.031635 339.064980 340.220850 341.447479 342.689862 343.892142 345.000015 345.779804 346.387312 346.800651 347.005380 346.994920 346.770698 346.342041 345.725801 344.945751 344.031738 342.889537 341.696831 340.505419 339.366883 338.330414 337.440718 336.736069 336.246607 335.992918 335.984970 336.501734 337.226766 338.113414 339.107462 340.149662 341.178465 342.132845 342.955104 343.593556 344.004990 343.756195 343.261879 342.547239 341.647140 340.604235 339.466793 338.286350 337.115255 336.004225 335.000000 334.430666 334.016241 333.756935 333.645628 333.668622 333.806646 334.036066 334.330243 334.660980 335.000000 335.063852 335.107191 335.130123 335.134704 335.124431 335.103671 335.077059 335.048891 335.022550 335.000000 335.175812 335.337146 335.464114 335.536667 335.535723 335.444281 335.248503 334.938690 334.510126 333.963730 332.903341 331.778781 330.641821 329.545586 328.541834 327.678273 326.996026 326.527351 326.293723 326.304352 327.186279 328.238392 329.379077 330.521189 331.576737 332.461690 333.100671 333.431359 333.408398 333.006653 331.252088 329.219932 327.034162 324.831815 322.756322 320.950512 319.549558 318.674151 318.424175 318.873138 321.107486 324.002318 327.446296 331.303089 335.417604 339.622929 343.747721 347.623759 351.093353 354.016342 355.311736 355.940859 355.926608 355.316957 354.181580 352.607710 350.695415 348.552498 346.289209 344.013000 342.420289 340.948784 339.622171 338.451642 337.436516 336.565350 335.817475 335.164875 334.574323 334.009674 333.071683 332.119944 331.152095 330.167344 329.166323 328.150855 327.123679 326.088131 325.047824 324.006348 323.198567 322.376205 321.522916 320.624291 319.669079 318.650342 317.566456 316.421938 315.228030 314.003006 312.353357 310.764739 309.308867 308.057911 307.081053 306.441069 306.191088 306.371637 307.008120 308.108818 310.212563 312.694676 315.462743 318.412252 321.430993 324.403770 327.217251 329.764771 331.950907 333.695648 334.285897 334.390741 334.046977 333.309021 332.245792 330.937102 329.469709 327.933168 326.415669 325.000000 324.228190 323.652021 323.280347 323.110232 323.127927 323.310287 323.626529 324.040264 324.511712 325.000000 325.154847 325.278138 325.363465 325.407797 325.411314 325.377105 325.310738 325.219731 325.112957 325.000000 324.957621 324.921351 324.893920 324.877276 324.872478 324.879655 324.898011 324.925889 324.960883 325.000000 325.039552 325.076649 325.107808 325.129865 325.140245 325.137232 325.120222 325.089933 325.048583 325.000000 324.818225 324.652744 324.522796 324.447544 324.445146 324.531845 324.721132 325.022995 325.443302 325.983337 326.816646 327.742892 328.734438 329.761050 330.791326 331.794169 332.740260 333.603460 334.362084 335.000000 335.138298 335.174332 335.142286 335.079505 335.024253 335.013419 335.080275 335.252387 335.549764 335.983337 336.989233 338.085083 339.214899 340.316919 341.326693 342.180351 342.817912 343.186505 343.243367 342.958496 341.826191 340.380967 338.680978 336.796589 334.807464 332.799315 330.860395 329.077899 327.534387 326.304352 325.670973 325.443312 325.637288 326.253686 327.278178 328.681857 330.422248 332.444773 334.684622 337.068970 339.625479 342.159872 344.582081 346.805789 348.751829 350.351384 351.548866 352.304375 352.595639 352.419357 351.244491 349.699682 347.883762 345.906963 343.885945 341.938600 340.178817 338.711418 337.627445 337.000000 337.577169 338.630950 340.107727 341.935454 344.027606 346.287664 348.613945 350.904587 353.062489 355.000000 355.869111 356.453863 356.779596 356.885053 356.819558 356.639771 356.406190 356.179540 356.017209 355.969894 356.717590 357.594955 358.565744 359.585658 360.605051 361.571896 362.434908 363.146664 363.666598 363.963730 363.394629 362.631995 361.735270 360.772317 359.816157 358.941458 358.220929 357.721757 357.502234 357.608704 358.528843 359.782318 361.330155 363.120034 365.088655 367.164515 369.270986 371.329590 373.263340 375.000015 376.164559 377.041787 377.615611 377.881199 377.844804 377.523211 376.942860 376.138653 375.152516 374.031738 372.785795 371.510672 370.262258 369.094048 368.055077 367.188025 366.527543 366.098870 365.916792 365.984970 366.515633 367.251863 368.146363 369.144582 370.187229 371.212975 372.161234 372.974924 373.603095 374.003342 373.808701 373.363884 372.689578 371.816793 370.785299 369.641764 368.437641 367.226900 366.063689 365.000000 364.161941 363.504035 363.053234 362.827858 362.836817 363.079177 363.544066 364.210948 365.050246 366.024307 367.275765 368.553487 369.789027 370.914318 371.864763 372.582238 373.017919 373.134802 372.909822 372.335480 370.864862 369.126663 367.208432 365.207428 363.226194 361.367911 359.731714 358.408154 357.474972 356.993362 357.597107 358.662712 360.139037 361.957687 364.036409 366.283016 368.599654 370.887272 373.050108 375.000015 376.136804 376.968763 377.494098 377.725119 377.687008 377.416131 376.957965 376.364722 375.692782 375.000015 374.503488 374.080475 373.765331 373.586249 373.564267 373.712560 374.036017 374.531127 375.186171 375.981705 376.953097 378.002068 379.086427 380.161246 381.180762 382.100330 382.878352 383.478105 383.869417 384.030106 383.668662 383.084096 382.306037 381.371460 380.322933 379.206667 378.070452 376.961560 375.924686 375.000015 374.377925 373.914050 373.613370 373.473054 373.482811 373.625521 373.878122 374.212717 374.597868 375.000015 375.357792 375.668586 375.903506 376.037051 376.048322 375.922087 375.649673 375.229631 374.668158 373.979248 372.901041 371.769123 370.641725 369.579514 368.642881 367.889207 367.370219 367.129541 367.200533 367.604507 368.755801 370.207603 371.906601 373.789845 375.787699 377.827043 379.834600 381.740255 383.480231 385.000000 385.657464 386.073942 386.283625 386.329997 386.262940 386.135595 386.001117 385.909473 385.904417 386.020767 386.854810 387.795513 388.793694 389.792113 390.728603 391.539471 392.163031 392.543112 392.632409 392.395508 391.210712 389.726163 388.003110 386.114368 384.141149 382.169546 380.286832 378.577697 377.120568 375.984161 375.593899 375.588136 375.960685 376.690914 377.744925 379.077188 380.632566 382.348655 384.158343 385.992508 387.569543 389.056984 390.412464 391.599185 392.586827 393.352260 393.880028 394.162606 394.200425 394.001678 393.548080 392.898065 392.082651 391.137537 390.101829 389.016692 387.923963 386.864767 385.878184 385.000000 384.244995 383.656779 383.256539 383.058556 383.069745 383.289426 383.709350 384.313958 385.080889 385.981705 387.034400 388.146109 389.272170 390.366980 391.385717 392.286044 393.029757 393.584300 393.924111 394.031738 393.633337 393.017403 392.215904 391.267425 390.215325 389.105755 387.985614 386.900512 385.892840 385.000000 384.581732 384.304705 384.157029 384.121298 384.176139 384.297908 384.462464 384.646919 384.831296 385.000000 384.529393 384.080973 383.707532 383.462245 383.395263 383.550344 383.961688 384.651111 385.625695 386.876053 389.207077 391.672638 394.144195 396.486668 398.564912 400.250342 401.427432 401.999841 401.895899 401.073227 398.369844 395.061539 391.301977 387.267266 383.148094 379.141266 375.440999 372.230290 369.672697 367.904846 368.116815 369.192680 371.068270 373.647589 376.807973 380.406191 384.285249 388.281606 392.232537 395.983353 398.471321 400.580977 402.292757 403.606527 404.539790 405.125252 405.407859 405.441455 405.285217 405.000015 405.197004 405.329433 405.399268 405.404399 405.339518 405.197212 404.969226 404.647795 404.226992 403.704010 402.584995 401.414268 400.243831 399.126263 398.112234 397.248049 396.573320 396.118857 395.904876 395.939606 396.684687 397.616479 398.666521 399.759153 400.815173 401.755672 402.505908 402.999044 403.179628 403.006653 401.877459 400.415051 398.680296 396.747729 394.702132 392.634714 390.639058 388.806964 387.224364 385.967468 385.460649 385.357143 385.656563 386.342556 387.383695 388.734885 390.339249 392.130403 394.035054 395.975815 397.726764 399.372705 400.853022 402.112593 403.103551 403.786833 404.133459 404.125527 403.756865 403.033340 401.791173 400.256129 398.483024 396.534353 394.477898 392.384194 390.323932 388.365388 386.571977 385.000000 383.867472 383.025226 382.484208 382.244581 382.296232 382.619632 383.186984 383.963636 384.909682 385.981705 386.983893 388.035608 389.105589 390.164267 391.184503 392.142226 393.016960 393.792229 394.455837 395.000015 395.375873 395.633472 395.781626 395.832432 395.800573 395.702571 395.555995 395.378683 395.187979 395.000015 394.812399 394.654843 394.537800 394.468429 394.450316 394.483343 394.563705 394.684083 394.833948 395.000015 395.228180 395.435658 395.599610 395.697803 395.709784 395.618003 395.408859 395.073607 394.609099 394.018311 392.936003 391.783461 390.612877 389.478047 388.431660 387.522608 386.793443 386.278073 385.999818 385.969894 386.817541 387.843875 388.969415 390.109045 391.176635 392.089760 392.774318 393.168847 393.228353 392.927475 391.226861 389.269771 387.182927 385.104538 383.177249 381.540820 380.324833 379.641710 379.580353 380.200653 382.659863 385.720789 389.245293 393.070102 397.014140 400.886596 404.495410 407.655870 410.198962 411.979172 411.834276 410.823810 408.992759 406.417457 403.201547 399.471009 395.368448 391.046879 386.663224 382.371796 378.850568 375.649449 372.837076 370.464135 368.562563 367.145430 366.207458 365.726165 365.663554 365.968277 366.491023 367.258599 368.202499 369.251111 370.332468 371.376959 372.319919 373.104009 373.681307 374.015045 373.733604 373.202045 372.450971 371.520686 370.458737 369.317226 368.149990 367.009785 365.945568 365.000000 364.620746 364.382987 364.266124 364.241967 364.276625 364.332678 364.371499 364.355651 364.251237 364.030106 363.202242 362.266609 361.260019 360.225170 359.208519 358.257987 357.420584 356.740052 356.254631 355.995026 356.296335 356.828464 357.565716 358.474005 359.512451 360.635260 361.793781 362.938679 364.022138 365.000000 365.583021 366.013102 366.287954 366.412395 366.397869 366.261728 366.026328 365.717962 365.365675 365.000000 364.620044 364.288638 364.035897 363.888329 363.867636 363.989714 364.263862 364.692239 365.269604 365.983337 367.057732 368.203176 369.368234 370.499631 371.544889 372.454967 373.186795 373.705606 373.986948 374.018311 373.212615 372.220916 371.118311 369.986524 368.909731 367.970264 367.244351 366.798069 366.683690 366.936554 368.257537 369.898407 371.777572 373.799523 375.859384 377.847875 379.656485 381.182648 382.334728 383.036606 382.525493 381.534935 380.112428 378.323834 376.250165 373.983821 371.624430 369.274448 367.034697 365.000000 363.677768 362.678765 362.023625 361.718648 361.756193 362.115552 362.764268 363.659825 364.751649 365.983337 367.052145 368.161817 369.271944 370.342816 371.336307 372.216700 372.951436 373.511773 373.873355 374.016678 373.986252 373.709369 373.178161 372.391109 371.353269 370.076357 368.578672 366.884861 365.025515 363.036606 360.818608 358.567783 356.342628 354.201797 352.202190 350.397087 348.834382 347.554982 346.591409 345.966675 345.764194 345.908749 346.385529 347.169739 348.227504 349.517050 350.990139 352.593703 354.271635 355.966675 357.651991 359.242851 360.687295 361.939697 362.962458 363.727456 364.217192 364.425593 364.358432 364.033340 363.079976 361.970075 360.784916 359.609221 358.527129 357.618173 356.953413 356.591890 356.577517 356.936569 358.296560 359.970975 361.875598 363.913014 365.977269 367.958889 369.750055 371.249739 372.368582 373.033340 372.407315 371.310718 369.800693 367.951591 365.851055 363.595610 361.285945 359.022070 356.898550 355.000000 353.991557 353.279894 352.850773 352.674857 352.709745 352.902524 353.192718 353.515518 353.805159 353.998306 353.653352 353.139616 352.449796 351.585492 350.556914 349.382279 348.086925 346.702174 345.263999 343.811539 342.428836 341.108462 339.886305 338.795787 337.866647 337.123858 336.586691 336.267985 336.173624 336.302246 336.769655 337.425880 338.238448 339.170221 