New loadshape.LS_PhaseA npts=1440 sinterval=60 pmult=(314.352753 314.325029 314.615032 315.174435 315.944392 316.857768 317.841663 318.820147 319.717118 320.459183 320.978455 320.949016 320.611231 319.949384 318.958690 317.645079 316.024676 314.123002 311.973920 309.618380 307.102997 304.465834 301.773106 299.080176 296.441688 293.909965 291.533503 289.355633 287.413388 285.736578 284.347137 283.322932 282.600248 282.170824 282.019197 282.123710 282.457707 282.990850 283.690520 284.523239 285.456055 286.181937 286.972182 287.824657 288.738838 289.714935 290.752960 291.851797 293.008317 294.216582 295.467194 296.936792 298.401662 299.824814 301.167350 302.389873 303.453986 304.323828 304.967588 305.358935 305.478302 305.034985 304.329056 303.388931 302.249278 300.949511 299.532147 298.041092 296.519921 295.010213 293.549988 292.288426 291.126178 290.073963 289.136202 288.311264 287.591945 286.966147 286.417726 285.927477 285.474213 284.881917 284.296353 283.709342 283.113298 282.501383 281.867621 281.207008 280.515587 279.790516 279.030121 278.239560 277.413436 276.553340 275.662205 274.744334 273.805411 272.852491 271.893969 270.939518 270.000000 268.980949 268.010604 267.110998 266.303426 265.607635 265.041050 264.618083 264.349535 264.242121 264.298126 264.514301 264.884601 265.397585 266.037560 266.785008 267.617150 268.508633 269.432316 270.360133 271.264008 272.058094 272.781178 273.415259 273.945145 274.358882 274.648115 274.808367 274.839223 274.744408 274.531769 274.114616 273.615299 273.060660 272.479355 271.900803 271.354108 270.867008 270.464887 270.169861 270.000000 269.969981 270.086427 270.351945 270.763554 271.312748 271.985744 272.763900 273.624306 274.540503 275.483337 276.350929 277.188878 277.971426 278.673303 279.270386 279.740353 280.063318 280.222426 280.204397 280.000000 279.559320 278.931344 278.124546 277.151888 276.030538 274.781513 273.429226 272.000969 270.526330 269.036560 267.494365 266.007616 264.614039 263.349481 262.246875 261.335267 260.638970 260.176843 259.961723 260.000031 260.285651 260.818208 261.584816 262.566375 263.738066 265.070010 266.528071 268.074787 269.670389 271.273895 272.780752 274.220141 275.559139 276.767209 277.816834 278.684073 279.349045 279.796324 280.015226 280.000000 279.656051 279.089186 278.315970 277.356484 276.233462 274.971409 273.595717 272.131809 270.604355 269.036560 267.481541 265.923265 264.374916 262.846976 261.347344 259.881574 258.453221 257.064262 255.715589 254.407532 253.029682 251.703300 250.438945 249.247276 248.138836 247.123828 246.211880 245.411817 244.731442 244.177338 243.714293 243.389546 243.208359 243.173838 243.286689 243.545033 243.944306 244.477237 245.133912 245.901932 246.740846 247.662117 248.649665 249.686012 250.752654 251.830481 252.900241 253.943039 254.940844 255.876999 256.715098 257.466605 258.123429 258.680245 259.134676 259.487386 259.742114 259.905611 259.987498 260.000031 259.768757 259.514723 259.271007 259.069465 258.939136 258.904735 258.985305 259.193072 259.532566 260.000031 260.773724 261.626375 262.513960 263.387367 264.194503 264.882553 265.400324 265.700572 265.742236 265.492493 264.627075 263.462146 262.022945 260.344418 258.469848 256.449238 254.337488 252.192449 250.072912 248.036606 246.270070 244.679649 243.298582 242.154014 241.266593 240.650291 240.312420 240.253853 240.469414 240.948425 241.533521 242.359396 243.414517 244.683336 246.146457 247.780880 249.560342 251.455732 253.435591 255.466690 257.495118 259.507073 261.469657 263.350842 265.120122 266.749179 268.212531 269.488147 270.558029 271.408722 272.002639 272.368473 272.510957 272.440181 272.171460 271.725099 271.126052 270.403479 269.590202 268.722076 267.661322 266.637960 265.706543 264.919501 264.325313 263.966793 263.879550 264.090691 264.617799 265.468231 266.828543 268.479385 270.381562 272.488547 274.748551 277.106772 279.507717 281.897544 284.226303 286.450012 288.159775 289.733032 291.183077 292.530097 293.799510 295.020123 296.222180 297.435385 298.686984 300.000000 301.633061 303.333785 305.085228 306.864740 308.645015 310.395374 312.083215 313.675585 315.140792 316.450012 317.288927 317.953689 318.455635 318.810629 319.038226 319.160748 319.202295 319.187740 319.141754 319.087891 319.164524 319.263597 319.391746 319.553502 319.751708 319.988022 320.263496 320.579188 320.936775 321.339142 321.530012 321.798887 322.175920 322.690998 323.372419 324.245607 325.331891 326.647439 328.202353 330.000000 332.227378 334.666352 337.283436 340.040599 342.896952 345.810558 348.740297 351.647697 354.498675 357.265106 359.613864 361.871527 364.059530 366.205101 368.339612 370.496761 372.710665 375.013918 377.435704 380.000031 382.768065 385.700144 388.793077 392.034547 395.402976 398.867728 402.389660 405.921996 409.411514 412.800018 416.086771 419.144083 421.904686 424.304602 426.285599 427.797557 428.800664 429.267343 429.183858 428.551514 427.027570 425.035254 422.652264 419.967213 417.076451 414.080644 411.081241 408.176935 405.460253 403.014374 401.080824 399.529905 398.388235 397.666801 397.361119 397.451904 397.906209 398.679010 399.715155 400.951630 402.243388 403.603801 404.967615 406.271198 407.454778 408.464561 409.254666 409.788811 410.041694 410.000031 409.328778 408.402070 407.271791 405.998245 404.647371 403.287813 401.987945 400.812974 399.822225 399.066711 398.927293 399.063555 399.463942 400.107152 400.963904 401.999004 403.173639 404.447786 405.782631 407.142883 407.986637 408.848018 409.754603 410.738036 411.831954 413.069799 414.482584 416.096732 417.932062 420.000031 422.526017 425.257065 428.154906 431.172416 434.255110 437.342958 440.372461 443.278923 445.998830 448.472260 450.427651 452.056125 453.339248 454.267875 454.842439 455.073000 454.979064 454.589174 453.940290 453.076965 451.966023 450.754968 449.511331 448.304484 447.203709 446.276288 445.585652 445.189650 445.138981 445.475830 446.208996 447.386152 449.020182 451.112356 453.652235 456.617877 459.976351 463.684545 467.690233 471.933380 476.223820 480.625054 485.073064 489.501343 493.842108 498.027573 501.991242 505.669230 509.001553 511.933380 514.373225 516.326696 517.764534 518.666186 519.020225 518.824619 518.086833 516.823760 515.061477 512.834839 510.051398 506.908522 503.474085 499.819949 496.020097 492.148773 488.278664 484.479178 480.814861 477.343994 474.084746 471.114831 468.470221 466.177029 464.251200 462.698485 461.514721 460.686372 460.191341 460.000000 459.941112 460.120705 460.505293 461.057976 461.739334 462.508391 463.323645 464.144121 464.930451 465.645935 466.289762 466.799212 467.148820 467.319724 467.300475 467.087676 466.686399 466.110385 465.381978 464.531799 463.179585 461.823472 460.547883 459.436949 458.570747 458.021679 457.851110 458.106407 458.818489 460.000000 462.068342 464.537107 467.326373 470.342767 473.483583 476.641292 479.708284 482.581648 485.167824 487.386932 488.543077 489.282934 489.638542 489.659429 489.410072 488.966860 488.414684 487.843286 487.343496 487.003510 487.117776 487.526506 488.273326 489.389851 490.894923 492.794301 495.080817 497.734962 500.725891 504.012787 507.461874 511.110883 514.906605 518.792672 522.711432 526.605858 530.421439 534.107970 537.621198 540.924255 543.574693 546.001835 548.230114 550.289595 552.213651 554.036564 555.791178 557.506692 559.206706 560.907593 563.024763 565.114958 567.134946 569.036961 570.771598 572.290877 573.551389 574.517352 575.163466 575.477417 574.795464 573.860142 572.761206 571.598283 570.476852 569.503988 568.784001 568.414154 568.480608 569.054749 570.583596 572.672076 575.299776 578.427708 582.000160 585.947084 590.186960 594.630000 599.181593 603.745850 607.755581 611.637237 615.349177 618.855747 622.127158 625.139197 627.872799 630.313523 632.450981 634.278259 635.903948 637.203459 638.168538 638.794156 639.078927 639.025565 638.641360 637.938658 636.935295 635.654968 633.984951 632.116891 630.104397 628.005429 625.881229 623.795153 621.811441 619.993929 618.404741 617.102966 615.863010 615.037301 614.690824 614.877631 615.638398 616.998299 618.965313 621.529016 624.659928 628.309448 632.634838 637.308432 642.212114 647.217040 652.187681 656.986148 661.476655 665.529983 669.027804 671.866699 673.466724 674.302034 674.372695 673.698707 672.318349 670.286058 667.669935 664.548973 661.010119 657.145264 653.267917 649.232177 645.110155 640.970749 636.878773 632.894329 629.072401 625.462647 622.109360 619.051575 615.914222 613.170544 610.877843 609.084527 607.828281 607.134480 607.014923 607.466925 608.472835 610.000000 612.168119 614.735218 617.614846 620.712008 623.926242 627.154910 630.296598 633.254532 635.939868 638.274780 639.840355 640.974287 641.674784 641.955145 641.842629 641.376937 640.608382 639.595809 638.404330 637.102966 635.782808 634.490610 633.291499 632.245802 631.407291 630.821692 630.525469 630.544938 630.895698 631.582397 632.418990 633.584250 635.066119 636.841707 638.877587 641.130414 643.547875 646.069924 648.630297 651.158264 653.544810 655.755497 657.721086 659.375767 660.659145 661.518146 661.908817 661.797918 661.164303 660.000000 658.112139 655.737055 652.925200 649.738680 646.249453 642.537289 638.687535 634.788759 630.930333 627.200012 623.510378 620.123750 617.123402 614.580786 612.553093 611.081250 610.188416 609.879035 610.138488 610.933350 612.378038 614.225903 616.381315 618.738536 621.185588 623.608366 625.894841 627.939231 629.645979 630.933411 631.259780 631.098474 630.464292 629.389451 627.921601 626.121401 624.059723 621.814609 619.468089 617.102966 614.889262 612.803615 610.906346 609.248737 607.871579 606.804132 606.063516 605.654538 605.569964 605.791199 606.231344 606.916888 607.807265 608.855829 610.011699 611.221759 612.432729 613.593253 614.655912 615.579102 615.931713 616.118844 616.157045 616.069130 615.882471 615.627183 615.334279 615.033869 614.753495 614.516663 614.605535 614.745943 614.922276 615.115080 615.302626 615.462644 615.574151 615.619293 615.585102 615.465088 614.754990 614.013928 613.301887 612.682775 612.221629 611.981730 612.021743 612.392994 613.136978 614.283203 616.037085 618.192934 620.720889 623.577543 626.707333 630.044376 633.514672 637.038600 640.533636 643.917175 646.863488 649.566228 651.978697 654.061771 655.784711 657.125770 658.072581 658.622324 658.781663 658.566467 657.767736 656.670357 655.332937 653.817677 652.187951 650.505936 648.830383 647.214591 645.704680 644.338196 643.340650 642.516029 641.856028 641.344564 640.959532 640.674823 640.462504 640.295066 640.147635 640.000061 639.308375 638.642692 638.049194 637.578042 637.280910 637.208422 637.407572 637.919258 638.776016 640.000061 641.883556 644.117470 646.663055 649.471129 652.483967 655.637526 658.863920 662.094038 665.260222 668.298889 670.719531 672.944908 674.971925 676.804645 678.453139 679.932166 681.259740 682.455650 683.539994 684.531799 685.512769 686.424964 687.272441 688.055299 688.769674 689.407972 689.959319 690.410206 690.745307 690.948425 690.875043 690.650769 690.273251 689.741942 689.058443 688.226814 687.253852 686.149310 684.926037 683.600037 681.864460 680.094180 678.340123 676.651910 675.075648 673.651857 672.413593 671.384875 670.579453 670.000000 669.803907 669.790618 669.916087 670.128542 670.370843 670.583139 670.705687 670.681772 670.460590 670.000000 668.984622 667.706715 666.186226 664.456043 662.561273 660.558153 658.512596 656.498442 654.595430 652.886963 651.197710 649.891698 649.069726 648.823639 649.232562 650.359468 652.248224 654.921189 658.377493 662.592041 667.780120 673.581697 679.879704 686.539757 693.414452 700.348116 707.181875 713.758847 719.929300 725.555603 730.016418 733.755602 736.736656 738.943855 740.381449 741.072303 741.056057 740.386874 739.130875 737.363342 735.108993 732.512325 729.663492 726.649947 723.553559 720.448065 717.396923 714.451626 711.650544 709.018311 706.789137 704.719967 702.777956 700.921868 699.105251 697.279833 695.398983 693.421097 691.312763 689.051575 685.886340 682.627988 679.357928 676.165608 673.144276 670.386516 667.979738 666.001821 664.517064 663.572632 663.681425 664.320211 665.431845 666.941007 668.757238 670.778572 672.895615 674.995933 676.968582 678.708618 679.654314 680.234125 680.422400 680.208548 679.596878 678.605991 677.267773 675.626013 673.734711 671.656128 669.335328 666.976941 664.664792 662.480654 660.501293 658.795727 657.422776 656.428989 655.847015 655.694458 656.079734 656.874282 658.040484 659.527639 661.274059 663.209551 665.258182 667.341242 669.380289 671.300171 672.638188 673.762101 674.654210 675.305304 675.714108 675.886508 675.834582 675.575495 675.130311 674.522766 673.832113 673.024653 672.120967 671.140684 670.101984 669.021244 667.912821 666.788968 665.659885 664.533875 663.099025 661.705980 660.384682 659.160991 658.055460 657.082329 656.248786 655.554530 654.991672 654.544983 654.493100 654.483506 654.459588 654.364947 654.146745 653.759026 653.165844 652.344077 651.285796 650.000061 647.689725 645.294204 642.943273 640.774346 638.926222 637.532693 636.716224 636.581971 637.212367 638.662476 641.578609 645.275025 649.657799 654.605346 659.972907 665.597893 671.305881 676.917065 682.252925 687.142883 690.879494 693.927533 696.220079 697.713518 698.388228 698.248553 697.322114 695.658463 693.327166 690.415344 686.916900 683.060358 678.975760 674.796365 670.654283 666.676215 662.979414 659.668002 656.829746 654.533386 652.924477 651.922326 651.521338 651.694111 652.392821 653.551233 655.087283 656.906136 658.903619 660.969910 662.746122 664.392253 665.823919 666.963023 667.739730 668.094216 667.978153 667.355884 666.205281 664.518250 662.131212 659.247726 655.914963 652.190774 648.141588 643.840133 639.363078 634.788645 630.194286 625.654480 621.276758 617.082651 613.123613 609.442133 606.071128 603.033662 600.343007 598.002997 596.008673 594.347168 592.752006 591.466275 590.480058 589.777718 589.338054 589.134620 589.136173 589.307281 589.609063 590.000061 590.517314 591.031182 591.492137 591.853231 592.071704 592.110514 591.939721 591.537677 590.891968 590.000061 588.437922 586.691504 584.822942 582.898494 580.985198 579.147512 577.444062 575.924641 574.627546 573.577393 573.085513 572.817242 572.724649 572.746826 572.812460 572.842836 572.755173 572.466164 571.895598 570.969910 569.233987 567.063779 564.455368 561.417888 557.973047 554.154285 550.005603 545.580099 540.938279 536.146179 531.254666 526.354359 521.517393 516.813226 512.306634 508.055881 504.111096 500.512931 497.291506 494.465698 492.005419 489.947286 488.278467 486.974980 486.002492 485.317441 484.868434 484.597887 484.443851 484.341980 484.119388 483.831375 483.427029 482.859638 482.087897 481.076981 479.799470 478.236082 476.376216 474.218262 471.641627 468.801896 465.734156 462.479902 459.085531 455.600746 452.076892 448.565285 445.115581 441.774231 438.505019 435.428448 432.579817 429.985813 427.663528 425.619801 423.850890 422.342503 421.070182 420.000031 419.137491 418.382591 417.676551 416.957364 416.162064 415.229052 414.100435 412.724271 411.056655 409.063568 406.396093 403.398517 400.100274 396.540783 392.767653 388.834674 384.799657 380.722217 376.661572 372.674438 368.986374 365.455352 362.106190 358.957094 356.019845 353.300226 350.798683 348.511164 346.430100 344.545471 342.608748 340.866514 339.326665 337.995956 336.879583 335.980784 335.300443 334.836760 334.584963 334.537109 334.690940 335.022169 335.512375 336.140252 336.881962 337.711587 338.601656 339.523749 340.449141 341.349487 342.123779 342.827038 343.441876 343.952954 344.347137 344.613614 344.743994 344.732351 344.575246 344.271698 343.676383 342.951999 342.116120 341.186616 340.180660 339.113816 337.999237 336.846999 335.663613 334.451721 333.317225 332.139126 330.900091 329.580952 328.161981 326.624252 324.951030 323.129126 321.150168 319.011719 316.479916 313.825765 311.088079 308.310915 305.542133 302.831810 300.230563 297.787828 295.550158 ) qmult=(-40.000015 -40.360970 -40.740388 -41.149134 -41.597426 -42.094393 -42.647679 -43.263096 -43.944350 -44.692834 -45.507507 -46.344940 -47.242398 -48.194863 -49.194800 -50.232236 -51.294927 -52.368623 -53.437409 -54.484130 -55.490875 -56.433556 -57.301147 -58.077242 -58.746864 -59.297016 -59.717203 -59.999896 -60.140933 -60.139839 -60.000031 -59.590045 -59.071753 -58.471492 -57.817590 -57.139243 -56.465375 -55.823515 -55.238742 -54.732733 -54.322937 -54.090779 -53.968631 -53.952619 -54.034007 -54.199705 -54.432947 -54.714094 -55.021544 -55.332707 -55.625015 -55.748110 -55.822492 -55.841696 -55.801391 -55.699375 -55.535509 -55.311595 -55.031205 -54.699488 -54.322937 -53.896821 -53.442731 -52.970759 -52.491258 -52.014542 -51.550616 -51.108942 -50.698238 -50.326321 -50.000000 -49.676330 -49.412835 -49.216941 -49.094484 -49.049542 -49.084339 -49.199201 -49.392588 -49.661174 -50.000000 -50.349491 -50.759795 -51.226644 -51.744554 -52.306866 -52.905850 -53.532832 -54.178382 -54.832520 -55.484970 -56.086334 -56.669036 -57.226703 -57.753355 -58.243500 -58.692216 -59.095255 -59.449142 -59.751277 -60.000031 -60.130463 -60.212948 -60.254378 -60.262136 -60.243771 -60.206694 -60.157894 -60.103701 -60.049589 -60.000031 -59.944469 -59.900361 -59.869953 -59.854285 -59.853249 -59.865693 -59.889566 -59.922115 -59.960099 -60.000031 -59.936477 -59.876737 -59.826180 -59.789697 -59.771348 -59.774044 -59.799277 -59.846914 -59.915065 -60.000031 -60.113895 -60.230496 -60.339901 -60.431254 -60.493235 -60.514570 -60.484572 -60.393694 -60.234072 -60.000031 -59.587648 -59.106546 -58.568065 -57.985886 -57.375586 -56.754151 -56.139458 -55.549735 -55.003026 -54.516678 -54.093721 -53.762826 -53.537574 -53.429077 -53.445653 -53.592601 -53.872049 -54.282910 -54.820921 -55.478775 -56.176831 -56.977872 -57.872563 -58.848989 -59.892739 -60.987080 -62.113207 -63.250563 -64.377239 -65.470428 -66.460398 -67.374553 -68.194364 -68.902136 -69.481353 -69.917048 -70.196167 -70.307945 -70.244267 -70.000000 -69.560462 -68.941562 -68.149781 -67.195351 -66.092269 -64.858251 -63.514603 -62.086016 -60.600277 -59.087891 -57.448295 -55.860448 -54.370606 -53.023943 -51.863118 -50.926902 -50.248897 -49.856395 -49.769426 -50.000000 -50.600186 -51.511847 -52.717066 -54.190005 -55.897701 -57.801064 -59.856068 -62.015076 -64.228279 -66.445190 -68.531736 -70.532673 -72.410997 -74.133657 -75.672272 -77.003712 -78.110547 -78.981359 -79.610881 -80.000000 -80.227387 -80.228475 -80.015104 -79.604416 -79.018516 -78.283985 -77.431237 -76.493716 -75.506958 -74.507507 -73.172996 -71.926551 -70.829115 -69.933517 -69.281237 -68.899495 -68.798761 -68.970820 -69.387479 -70.000000 -71.292103 -72.576679 -73.703496 -74.513575 -74.845400 -74.541362 -73.454228 -71.453394 -68.430695 -64.305573 -58.353446 -51.295399 -43.209045 -34.202370 -24.409910 -13.988128 -3.110151 8.039943 19.273092 30.401276 40.881855 50.940291 60.453917 69.317551 77.445279 84.771633 91.252138 96.863248 101.601701 105.483330 108.602522 110.939588 112.551551 113.506645 113.881704 113.759414 113.225516 112.366027 111.264589 110.000000 108.881537 107.714370 106.532029 105.359312 104.212889 103.102191 102.030519 100.996326 99.994602 99.018295 97.893243 96.793404 95.726791 94.702286 93.729551 92.818822 91.980577 91.225125 90.562111 89.999992 89.673712 89.447753 89.313784 89.261899 89.280933 89.358769 89.482655 89.639515 89.816245 89.999992 90.213392 90.406943 90.567162 90.682052 90.741412 90.737094 90.663179 90.516095 90.294650 89.999992 89.617911 89.172752 88.673146 88.129031 87.551197 86.950822 86.338998 85.726260 85.122160 84.534874 84.057946 83.601520 83.161013 82.730611 82.303728 81.873503 81.433302 80.977209 80.500489 79.999992 79.426532 78.833268 78.227278 77.617457 77.014212 76.429105 75.874421 75.362703 74.906257 74.516655 74.246513 74.058325 73.955341 73.938892 74.008313 74.160933 74.392110 74.695324 75.062324 75.483322 76.017754 76.577345 77.143608 77.698460 78.224958 78.707995 79.134923 79.496095 79.785287 79.999992 80.051546 80.042699 79.989613 79.910850 79.826453 79.756961 79.722394 79.741252 79.829558 79.999992 80.410810 80.903409 81.464688 82.077960 82.723704 83.380411 84.025514 84.636336 85.191043 85.669556 85.974256 86.178206 86.277538 86.271832 86.164009 85.960106 85.668952 85.301753 84.871607 84.392967 83.955030 83.492724 83.015309 82.532040 82.052060 81.584280 81.137287 80.719242 80.337794 79.999992 79.717077 79.489452 79.321502 79.216765 79.177899 79.206654 79.303849 79.469357 79.702089 79.999992 80.371075 80.799281 81.278877 81.803396 82.365739 82.958288 83.573021 84.201636 84.835677 85.466660 86.152663 86.813599 87.436385 88.009191 88.521919 88.966637 89.337931 89.633180 89.852736 89.999992 90.017209 89.983039 89.914442 89.829866 89.748441 89.689134 89.669899 89.706845 89.813475 89.999992 90.384114 90.846869 91.376864 91.959312 92.576666 93.209342 93.836518 94.436964 94.989896 95.475792 95.840169 96.108728 96.273011 96.327952 96.272054 96.107454 95.839867 95.478419 95.035380 94.525787 93.987403 93.416929 92.833166 92.255789 91.704809 91.200020 90.760429 90.403720 90.145733 89.999992 90.035371 90.196622 90.483526 90.893039 91.419520 92.055019 92.789607 93.611739 94.508635 95.466660 96.444831 97.458113 98.494635 99.542725 100.591010 101.628504 102.644657 103.629387 104.573095 105.466667 106.340523 107.143912 107.866086 108.497270 109.028875 109.453709 109.766158 109.962353 110.040303 110.000000 109.880502 109.645920 109.299465 108.846774 108.296017 107.657937 106.945819 106.175379 105.364575 104.533333 103.659948 102.813909 102.022166 101.311368 100.707051 100.232833 99.909626 99.754915 99.782108 100.000000 100.492899 101.171676 102.022966 103.028965 104.168037 105.415436 106.744095 108.125482 109.530471 110.930229 112.303650 113.618203 114.850244 115.979487 116.989577 117.868539 118.609090 119.208792 119.670056 119.999992 120.144511 120.189726 120.159761 120.080726 119.979571 119.882920 119.815921 119.801156 119.857644 119.999992 120.391197 120.868606 121.418030 122.021131 122.656401 123.300259 123.928219 124.516091 125.041164 125.483330 125.733038 125.879648 125.923678 125.870198 125.728638 125.512434 125.238519 124.926689 124.598864 124.278259 123.992438 123.759550 123.601221 123.536999 123.583555 123.753965 124.057103 124.497158 125.073314 125.779587 126.759070 127.828749 128.955611 130.104355 131.238918 132.324030 133.326753 134.217923 134.973466 135.575508 135.802903 135.880673 135.830572 135.680000 135.460606 135.206729 134.953755 134.736440 134.587260 134.534882 134.834157 135.250747 135.776132 136.396640 137.094329 137.848049 138.634605 139.430000 140.210684 140.954773 141.519083 142.023558 142.467355 142.853417 143.188268 143.481653 143.746061 143.996125 144.247930 144.518269 144.826387 145.184562 145.606934 146.105406 146.688987 147.363204 148.129650 148.985647 149.924069 150.933331 152.173283 153.433921 154.677762 155.866423 156.962340 157.930470 158.739933 159.365510 159.788944 159.999996 159.710993 159.239807 158.626336 157.916223 157.158718 156.404384 155.702765 155.100089 154.637104 154.347134 154.601166 155.036579 155.628438 156.344178 157.145442 157.990142 158.834653 159.636074 160.354432 160.954773 161.122862 161.150118 161.049413 160.840848 160.550709 160.210187 159.853912 159.518367 159.240229 159.054726 159.187693 159.455993 159.866272 160.420688 161.117097 161.949388 162.907941 163.980191 165.151267 166.404682 167.638769 168.927704 170.261028 171.628367 173.019547 174.424683 175.834240 177.239072 178.630436 179.999998 181.364178 182.688702 183.964532 185.183330 186.337581 187.420705 188.427158 189.352524 190.193592 190.948419 191.654174 192.270714 192.797067 193.234023 193.584298 193.852660 194.045991 194.173282 194.245560 194.275741 194.193865 194.107293 194.039748 194.014576 194.053814 194.177282 194.401714 194.739989 195.200466 195.786471 196.624772 197.567945 198.592584 199.671466 200.774636 201.870583 202.927477 203.914404 204.802569 205.566422 206.051819 206.386749 206.571380 206.610596 206.513555 206.293116 205.965162 205.547842 205.060770 204.524208 204.094493 203.642892 203.176208 202.700669 202.222162 201.746490 201.279647 200.828068 200.398866 200.000000 199.506091 199.072776 198.721650 198.473585 198.347800 198.360948 198.526249 198.852696 199.344388 200.000000 200.936503 202.006041 203.179808 204.424807 205.704942 206.982232 208.218101 209.374687 210.416147 211.309905 211.959672 212.417061 212.670971 212.716391 212.554496 212.192567 211.643734 210.926550 210.064414 209.084860 207.992519 206.848555 205.689784 204.553166 203.474627 202.487905 201.623468 200.907542 200.361263 200.000000 199.937787 200.063523 200.364705 200.823494 201.417602 202.121310 202.906576 203.744186 204.604913 205.460637 206.173776 206.842821 207.457618 208.011194 208.499619 208.921752 209.278883 209.574293 209.812757 210.000001 210.189127 210.334710 210.438434 210.501486 210.524395 210.506922 210.448006 210.345762 210.197534 210.000001 209.783738 209.507612 209.164613 208.748282 208.253189 207.675394 207.012886 206.265959 205.437524 204.533334 203.481353 202.380897 201.253015 200.120515 199.007221 197.937182 196.933860 196.019322 195.213470 194.533333 194.063978 193.737119 193.552204 193.504886 193.587287 193.788372 194.094404 194.489477 194.956096 195.475792 195.999404 196.541587 197.087032 197.621455 198.131938 198.607216 199.037906 199.416682 199.738372 200.000000 200.209077 200.357846 200.448839 200.486400 200.476479 200.426374 200.344440 200.239755 200.121782 200.000000 199.838425 199.694161 199.578273 199.500016 199.466318 199.481349 199.546186 199.658582 199.812872 200.000000 200.338720 200.672121 200.972007 201.209709 201.357443 201.389662 201.284353 201.024230 200.597759 200.000000 199.025182 197.908648 196.684356 195.391226 194.071533 192.769160 191.527798 190.389138 189.391139 188.566433 188.150281 187.933205 187.907858 188.060061 188.369687 188.811739 189.357587 189.976317 190.636127 191.305732 191.814193 192.289274 192.720090 193.099223 193.422711 193.689926 193.903317 194.068060 194.191613 194.283216 194.583185 194.854036 195.088457 195.281159 195.429553 195.534310 195.599769 195.634161 195.649607 195.661881 195.248549 194.908822 194.700979 194.678698 194.887387 195.360700 196.117394 197.158648 198.466000 200.000000 202.440430 204.902335 207.224245 209.235161 210.761366 211.633509 211.693679 210.802227 208.844075 205.734266 200.665850 194.449029 187.172140 178.955759 169.948184 160.320034 150.258169 139.959143 129.622414 119.443565 110.106731 101.236934 92.941385 85.306655 78.397491 72.256331 66.903496 62.338037 58.539169 55.468231 53.018253 51.181897 49.886417 49.051641 48.593014 48.424659 48.462354 48.626346 48.843909 49.051575 49.036199 48.932286 48.726144 48.416022 48.011163 47.530476 47.000879 46.455391 45.931036 45.466660 45.240543 45.136107 45.173750 45.369265 45.733007 46.269284 46.975985 47.844437 48.859518 50.000000 51.286173 52.636371 54.011317 55.369445 56.668405 57.866623 58.924861 59.807729 60.485091 60.933319 61.076435 60.972300 60.626798 60.054223 59.276937 58.324777 57.234209 56.047270 54.810313 53.572601 52.337160 51.205152 50.229171 49.457969 48.934645 48.694980 48.765967 49.164591 49.896920 50.957520 52.597966 54.498521 56.597973 58.828071 61.116230 63.388364 65.571765 67.597912 69.405111 70.940872 71.902116 72.544857 72.875488 72.911957 72.682499 72.224027 71.580224 70.799435 69.932426 69.030090 68.329255 67.669320 67.073898 66.561089 66.143073 65.825927 65.609653 65.488438 65.451098 65.481720 65.652544 65.841860 66.017267 66.146374 66.198444 66.145961 65.966084 65.641914 65.163533 64.528763 63.527598 62.408352 61.210781 59.979767 58.763296 57.610294 56.568391 55.681704 54.988732 54.520432 54.617821 54.945456 55.477722 56.180742 57.013950 57.931907 58.886257 59.827784 60.708457 61.483414 61.913490 62.182330 62.280449 62.205006 61.959487 61.553166 61.000365 60.319558 59.532357 58.662415 57.900490 57.090222 56.241527 55.364037 54.467088 53.559737 52.650803 51.748909 50.862526 50.000000 49.113782 48.272693 47.489054 46.774237 46.138267 45.589421 45.133856 44.775269 44.514621 44.349915 44.366068 44.457175 44.604740 44.788361 44.986433 45.176896 45.337989 45.448980 45.490866 45.447006 45.296287 45.036605 44.661855 44.169741 43.561840 42.843538 42.023846 41.115104 40.132578 39.093964 38.022309 36.934272 35.850981 34.793515 33.782227 32.836073 31.971993 31.204340 30.544400 30.000000 29.703593 29.516412 29.424441 29.411277 29.459045 29.549335 29.664144 29.786771 29.902639 30.000000 29.933256 29.846663 29.750701 29.658381 29.584393 29.544158 29.552847 29.624393 29.770542 30.000000 30.544556 31.158591 31.819829 32.503650 33.184290 33.836095 34.434772 34.958604 35.389563 35.714279 35.772916 35.728677 35.598045 35.402122 35.165643 34.915851 34.681247 34.490291 34.370076 34.345047 34.598079 34.968396 35.452968 36.044149 36.730026 37.494905 38.319896 39.183593 40.062807 40.933334 41.742969 42.498298 43.178767 43.765337 44.240928 44.590790 44.802792 44.867628 44.778938 44.533340 44.157567 43.624229 42.936154 42.098859 41.120374 40.011006 38.783052 37.450467 36.028507 34.533340 33.049387 31.520031 29.956485 28.370167 26.772746 25.176178 23.592731 22.034991 20.515840 19.048401 17.659088 16.347154 15.124692 14.003591 12.995381 12.111046 11.360804 10.753857 10.298130 9.999985 9.860621 9.885750 10.075716 10.428259 10.938291 11.597731 12.395392 13.316949 14.344977 15.459091 16.783717 18.133590 19.469337 20.751729 21.943038 23.008358 23.916844 24.642817 25.166706 25.475784 25.431307 25.180183 24.742829 24.145412 23.418613 22.596230 21.713687 20.806496 19.908732 19.051575 18.445930 17.913456 17.454743 17.065479 16.736954 16.456717 16.209361 15.977401 15.742204 15.484940 15.163133 14.787424 14.345580 13.828110 13.228724 12.544663 11.776887 10.930118 10.012739 9.036545 8.017977 6.972327 5.918784 4.877799 3.870319 2.916968 2.037215 1.248553 0.565722 0.000000 -0.331921 -0.546243 -0.653956 -0.669892 -0.612184 -0.501638 -0.361023 -0.214320 -0.085952 0.000000 0.000106 -0.084441 -0.270836 -0.573560 -1.004026 -1.570316 -2.277009 -3.125116 -4.112104 -5.232010 -6.364507 -7.617798 -8.986055 -10.460004 -12.026793 