New loadshape.LS_PhaseA npts=1440 sinterval=60 pmult=(771.344 769.460 768.336 767.978 768.377 769.507 771.327 773.777 776.784 780.257 784.090 788.775 793.530 798.173 802.527 806.425 809.717 812.276 814.004 814.836 814.744 812.175 808.873 805.054 800.951 796.805 792.852 789.314 786.381 784.208 782.905 784.397 786.657 789.475 792.609 795.788 798.736 801.178 802.862 803.567 803.117 799.131 794.013 787.960 781.217 774.066 766.812 759.773 753.258 747.563 742.950 741.012 740.420 741.171 743.208 746.428 750.685 755.799 761.560 767.738 774.097 779.756 785.187 790.232 794.748 798.616 801.744 804.065 805.548 806.187 806.010 804.406 802.179 799.491 796.516 793.433 790.419 787.639 785.240 783.344 782.042 782.421 783.383 784.825 786.618 788.612 790.648 792.561 794.196 795.410 796.081 794.653 792.662 790.209 787.418 784.434 781.413 778.514 775.891 773.687 772.027 771.965 772.529 773.675 775.336 777.418 779.812 782.397 785.042 787.618 790.000 791.074 791.828 792.264 792.398 792.254 791.866 791.273 790.513 789.628 788.654 788.245 787.749 787.131 786.354 785.384 784.189 782.748 781.046 779.086 776.886 773.596 770.230 766.930 763.849 761.139 758.949 757.419 756.671 756.806 757.897 760.357 763.795 768.154 773.349 779.266 785.762 792.676 799.827 807.028 814.083 820.676 826.759 832.167 836.757 840.404 843.011 844.512 844.870 844.084 842.187 838.483 833.897 828.619 822.856 816.829 810.757 804.852 799.313 794.314 790.000 787.193 785.191 783.968 783.462 783.581 784.208 785.208 786.432 787.729 788.946 789.152 789.082 788.697 787.974 786.908 785.511 783.810 781.848 779.677 777.363 775.140 772.905 770.720 768.653 766.767 765.125 763.786 762.801 762.219 762.076 762.204 762.840 764.010 765.729 767.996 770.799 774.108 777.881 782.062 786.581 790.973 795.561 800.275 805.036 809.754 814.329 818.654 822.616 826.097 828.978 831.748 833.638 834.494 834.183 832.594 829.653 825.320 819.600 812.546 804.256 793.339 781.662 769.590 757.511 745.821 734.909 725.145 716.861 710.342 705.816 704.907 706.103 709.292 714.296 720.883 728.776 737.667 747.228 757.128 767.041 775.387 783.285 790.610 797.270 803.212 808.418 812.903 816.714 819.919 822.609 824.783 826.664 828.379 830.050 831.790 833.698 835.848 838.295 841.062 844.145 848.591 853.169 857.701 861.999 865.874 869.144 871.651 873.263 873.888 873.478 869.540 864.838 859.683 854.414 849.376 844.908 841.321 838.887 837.818 838.262 843.140 849.337 856.517 864.293 872.240 879.918 886.895 892.763 897.164 899.806 897.206 892.802 886.841 879.644 871.585 863.076 854.546 846.419 839.101 832.955 830.855 830.242 831.063 833.201 836.490 840.718 845.647 851.020 856.579 862.076 864.983 867.612 870.000 872.208 874.318 876.422 878.615 880.989 883.624 886.581 891.390 896.433 901.562 906.614 911.415 915.789 919.568 922.596 924.746 925.917 924.675 922.495 919.515 915.904 911.857 907.585 903.309 899.249 895.618 892.609 890.994 890.255 890.446 891.583 893.652 896.600 900.348 904.787 909.782 915.181 920.129 925.199 930.266 935.203 939.878 944.158 947.913 951.014 953.341 954.783 955.812 955.724 954.407 951.773 947.769 942.376 935.618 927.561 918.316 908.040 895.490 882.472 869.379 856.619 844.600 833.715 824.327 816.756 811.266 808.056 808.751 811.765 816.938 824.045 832.802 842.885 853.939 865.591 877.469 889.214 898.819 907.808 916.065 923.515 930.119 935.868 940.783 944.906 948.295 951.019 953.869 956.132 957.816 958.925 959.462 959.427 958.819 957.637 955.882 953.559 950.420 946.766 942.643 938.105 933.212 928.034 922.646 917.129 911.572 906.067 899.744 893.744 888.242 883.400 879.359 876.234 874.106 873.020 872.976 873.933 877.439 881.600 886.117 890.679 894.970 898.689 901.564 903.365 903.920 903.117 898.151 892.068 885.211 877.968 870.757 864.003 858.119 853.482 850.418 849.187 852.330 857.352 864.043 872.115 881.215 890.944 900.866 910.538 919.518 927.391 932.476 935.893 937.507 937.252 935.136 931.236 925.703 918.750 910.650 901.724 891.124 880.542 870.479 861.425 853.838 848.124 844.618 843.571 845.136 849.355 858.966 870.747 884.176 898.660 913.558 928.209 941.960 954.196 964.364 972.000 972.784 970.788 966.235 959.448 950.827 940.834 929.961 918.713 907.579 897.010 890.912 885.785 881.570 878.151 875.358 872.986 870.809 868.596 866.128 863.211 856.247 848.879 841.345 833.910 826.856 820.462 814.993 810.680 807.712 806.218 809.360 813.764 819.092 824.961 830.967 836.696 841.754 845.779 848.462 849.565 845.255 839.464 832.526 824.835 816.826 808.952 801.662 795.375 790.463 787.229 789.219 792.936 798.125 804.460 811.555 818.991 826.332 833.145 839.030 843.629 843.875 842.584 839.866 835.897 830.920 825.222 819.130 812.991 807.157 801.970 798.549 796.293 795.365 795.876 797.879 801.368 806.276 812.476 819.786 827.974 837.482 847.229 856.822 865.861 873.960 880.754 885.923 889.198 890.382 889.349 883.966 876.554 867.419 856.931 845.507 833.594 821.651 810.129 799.451 790.000 783.778 779.206 776.316 775.070 775.364 777.035 779.868 783.609 787.974 792.665 796.315 799.791 802.905 805.488 807.396 808.510 808.744 808.043 806.386 803.782 800.203 795.798 790.675 784.962 778.811 772.384 765.854 759.397 753.187 747.391 742.218 737.749 734.099 731.360 729.601 728.862 729.157 730.474 732.773 735.990 739.772 744.305 749.490 755.212 761.340 767.736 774.256 780.749 787.068 793.068 798.756 803.853 808.237 811.805 814.476 816.194 816.931 816.688 815.494 813.408 809.382 804.755 799.756 794.615 789.562 784.811 780.551 776.939 774.092 772.080 772.754 774.100 775.891 777.867 779.760 781.298 782.227 782.324 781.410 779.359 773.085 765.882 758.079 750.047 742.177 734.866 728.493 723.403 719.887 718.166 721.785 727.101 733.791 741.476 749.735 758.128 766.216 773.589 779.881 784.791 783.982 781.798 778.546 774.595 770.351 766.238 762.673 760.043 758.681 758.850 764.720 772.024 780.406 789.440 798.657 807.562 815.665 822.503 827.665 830.813 827.789 822.707 815.863 807.632 798.452 788.801 779.175 770.067 761.941 755.209 752.748 752.061 753.107 755.761 759.832 765.061 771.145 777.741 784.488 791.021 795.893 799.973 803.062 804.999 805.671 805.012 803.009 799.700 795.173 789.565 782.061 773.947 765.550 757.208 749.253 742.003 735.740 730.705 727.082 724.992 726.402 729.211 733.167 737.967 743.271 748.722 753.957 758.631 762.429 765.083 764.051 761.735 758.265 753.830 748.666 743.047 737.266 731.630 726.436 721.963 719.825 718.738 718.743 719.837 721.973 725.061 728.978 733.568 738.652 744.035 748.832 753.580 758.137 762.364 766.133 769.329 771.853 773.625 774.583 774.688 773.470 771.422 768.606 765.101 760.997 756.392 751.389 746.089 740.590 734.983 730.267 725.518 720.718 715.846 710.884 705.820 700.656 695.410 690.119 684.847 677.822 671.172 665.183 660.143 656.327 653.985 653.327 654.516 657.651 662.762 671.804 682.488 694.453 707.289 720.545 733.754 746.447 758.170 768.508 777.095 781.524 783.864 784.151 782.491 779.051 774.052 767.759 760.462 752.472 744.100 736.697 729.405 722.390 715.793 709.722 704.257 699.445 695.304 691.826 688.979 686.335 684.246 682.667 681.547 680.828 680.450 680.358 680.496 680.821 681.296 681.463 681.784 682.298 683.055 684.109 685.521 687.348 689.649 692.470 695.854 699.941 704.616 709.864 715.653 721.934 728.641 735.691 742.990 750.427 757.885 765.131 772.154 778.834 785.051 790.694 795.657 799.849 803.190 805.619 807.095 807.410 806.770 805.215 802.806 799.624 795.768 791.352 786.504 781.361 776.067 770.353 764.814 759.625 754.949 750.931 747.692 745.327 743.898 743.436 743.933 745.959 748.776 752.227 756.132 760.293 764.509 768.576 772.299 775.504 778.035 778.613 778.406 777.456 775.833 773.633 770.965 767.950 764.713 761.376 758.052 755.690 753.446 751.308 749.251 747.234 745.209 743.122 740.919 738.550 735.972 732.217 728.290 724.270 720.246 716.313 712.569 709.110 706.029 703.408 701.318 700.390 700.038 700.238 700.952 702.129 703.716 705.653 707.881 710.345 712.995 714.736 716.682 718.902 721.466 724.440 727.881 731.832 736.317 741.338 746.872 754.083 761.576 769.146 776.578 783.654 790.163 795.911 800.731 804.488 807.090 806.422 804.734 802.250 799.224 795.925 792.623 789.578 787.026 785.164 784.145 786.292 789.221 792.724 796.551 800.426 804.062 807.174 809.497 810.800 810.899 807.072 802.083 796.157 789.570 782.629 775.664 769.010 762.993 757.912 754.028 753.463 754.283 756.412 759.720 764.034 769.141 774.806 780.777 786.799 792.628 796.461 799.818 802.668 805.010 806.865 808.280 809.318 810.055 810.576 810.968 812.065 813.132 814.178 815.208 816.222 817.217 818.191 819.142 820.071 820.985 821.159 821.415 821.838 822.518 823.538 824.975 826.895 829.349 832.373 835.980 840.424 845.391 850.810 856.588 862.616 868.774 874.930 880.948 886.690 892.021 896.371 900.109 903.169 905.504 907.076 907.867 907.869 907.092 905.557 903.301 900.474 897.022 893.007 888.500 883.579 878.331 872.852 867.239 861.598 856.035 850.255 844.803 839.814 835.416 831.726 828.842 826.841 825.782 825.693 826.581 828.496 831.308 834.935 839.270 844.186 849.536 855.162 860.892 866.552 871.967 876.608 880.702 884.130 886.785 888.580 889.443 889.323 888.188 886.028 882.855 878.965 874.128 868.395 861.842 854.567 846.687 838.342 829.691 820.910 812.187 802.565 793.503 785.302 778.247 772.595 768.567 766.335 766.016 767.664 771.267 778.216 786.766 796.582 807.287 818.472 829.715 840.598 850.723 859.724 867.288 871.197 873.408 873.978 873.028 870.734 867.315 863.023 858.134 852.927 847.680 843.760 840.194 837.092 834.529 832.552 831.174 830.378 830.126 830.354 830.983 831.322 831.932 832.764 833.769 834.896 836.101 837.341 838.583 839.799 840.974 841.966 842.925 843.878 844.861 845.915 847.090 848.436 850.008 851.858 854.035 856.180 858.762 861.840 865.456 869.631 874.365 879.633 885.380 891.527 897.968 905.122 912.239 919.103 925.487 931.169 935.932 939.579 941.936 942.865 942.267 939.069 934.372 928.305 921.038 912.774 903.746 894.207 884.419 874.649 865.159 856.508 848.578 841.541 835.539 830.682 827.044 824.663 823.541 823.647 824.917 827.244 830.528 834.631 839.401 844.675 850.286 856.069 861.867 867.536 872.948 877.248 881.169 884.718 887.921 890.822 893.477 895.948 898.303 900.608 902.923 905.835 908.798 911.791 914.781 917.727 920.580 923.287 925.795 928.048 930.000 930.605 930.921 931.009 930.934 930.758 930.539 930.325 930.151 930.042 930.000 931.073 932.086 932.908 933.406 933.453 932.937 931.767 929.880 927.251 923.897 917.930 911.566 905.110 898.893 893.248 888.503 884.964 882.901 882.532 884.016 889.176 896.143 904.714 914.625 925.561 937.175 949.093 960.938 972.339 982.950 990.977 997.774 1003.260 1007.402 1010.219 1011.775 1012.178 1011.570 1010.124 1008.033 1005.850 1003.410 1000.895 998.483 996.339 994.609 993.418 992.866 993.022 993.927 994.987 996.825 999.434 1002.767 1006.742 1011.242 1016.114 1021.176 1026.218 1031.011 1036.741 1041.616 1045.275 1047.381 1047.642 1045.824 1041.766 1035.390 1026.713 1015.847 999.179 981.166 962.519 943.988 926.333 910.285 896.515 885.606 878.018 874.073 879.132 887.544 898.706 911.897 926.318 941.129 955.489 968.594 979.722 988.261 987.881 984.654 978.938 971.220 962.092 952.213 942.283 933.002 925.036 918.985 919.450 922.348 927.585 934.955 944.151 954.782 966.389 978.471 990.502 1001.960 1010.304 1017.316 1022.774 1026.519 1028.456 1028.558 1026.864 1023.482 1018.578 1012.375 1004.526 996.000 987.185 978.477 970.266 962.926 956.792 952.151 949.232 948.195 950.525 954.702 960.534 967.764 976.083 985.143 994.573 1003.991 1013.027 1021.330 1026.937 1031.384 1034.605 1036.582 1037.347 1036.978 1035.591 1033.335 1030.384 1026.932 1023.630 1020.187 1016.763 1013.512 1010.571 1008.061 1006.086 1004.721 1004.023 1004.020 1004.612 1005.896 1007.837 1010.382 1013.459 1016.979 1020.845 1024.948 1029.180 ) qmult=(335.000 334.291 333.764 333.426 333.272 333.290 333.458 333.747 334.125 334.555 335.000 335.123 335.219 335.284 335.316 335.316 335.287 335.234 335.164 335.084 335.000 335.084 335.164 335.233 335.282 335.306 335.301 335.265 335.199 335.108 335.000 334.608 334.250 333.967 333.799 333.785 333.959 334.349 334.976 335.848 336.967 338.621 340.462 342.429 344.459 346.479 348.417 350.202 351.766 353.048 353.997 354.254 354.141 353.671 352.871 351.780 350.442 348.914 347.255 345.527 343.793 342.174 340.662 339.304 338.140 337.201 336.511 336.081 335.914 336.003 336.330 337.021 337.876 338.841 339.858 340.867 341.811 342.637 343.298 343.754 343.979 343.556 342.916 342.103 341.168 340.168 339.166 338.222 337.397 336.743 336.306 336.509 336.953 337.618 338.471 339.472 340.576 341.732 342.888 343.994 345.000 345.482 345.823 346.026 346.103 346.070 345.947 345.756 345.519 345.261 345.000 345.045 345.094 345.131 345.140 345.101 344.998 344.813 344.533 344.148 343.654 342.643 341.566 340.471 339.406 338.420 337.559 336.863 336.364 336.085 336.038 336.701 337.541 338.495 339.492 340.456 341.312 341.989 342.423 342.563 342.368 341.180 339.684 337.945 336.040 334.054 332.078 330.201 328.509 327.081 325.982 325.857 326.095 326.665 327.518 328.597 329.836 331.166 332.514 333.813 335.000 335.422 335.689 335.823 335.853 335.815 335.748 335.694 335.693 335.781 335.987 336.819 337.762 338.776 339.818 340.839 341.790 342.622 343.290 343.757 343.993 343.491 342.776 341.893 340.898 339.849 338.810 337.842 337.004 336.350 335.924 336.090 336.510 337.167 338.032 339.065 340.221 341.447 342.690 343.892 345.000 345.780 346.387 346.801 347.005 346.995 346.771 346.342 345.726 344.946 344.032 342.890 341.697 340.505 339.367 338.330 337.441 336.736 336.247 335.993 335.985 336.502 337.227 338.113 339.107 340.150 341.178 342.133 342.955 343.594 344.005 343.756 343.262 342.547 341.647 340.604 339.467 338.286 337.115 336.004 335.000 334.431 334.016 333.757 333.646 333.669 333.807 334.036 334.330 334.661 335.000 335.064 335.107 335.130 335.135 335.124 335.104 335.077 335.049 335.023 335.000 335.176 335.337 335.464 335.537 335.536 335.444 335.249 334.939 334.510 333.964 332.903 331.779 330.642 329.546 328.542 327.678 326.996 326.527 326.294 326.304 327.186 328.238 329.379 330.521 331.577 332.462 333.101 333.431 333.408 333.007 331.252 329.220 327.034 324.832 322.756 320.951 319.550 318.674 318.424 318.873 321.107 324.002 327.446 331.303 335.418 339.623 343.748 347.624 351.093 354.016 355.312 355.941 355.927 355.317 354.182 352.608 350.695 348.552 346.289 344.013 342.420 340.949 339.622 338.452 337.437 336.565 335.817 335.165 334.574 334.010 333.072 332.120 331.152 330.167 329.166 328.151 327.124 326.088 325.048 324.006 323.199 322.376 321.523 320.624 319.669 318.650 317.566 316.422 315.228 314.003 312.353 310.765 309.309 308.058 307.081 306.441 306.191 306.372 307.008 308.109 310.213 312.695 315.463 318.412 321.431 324.404 327.217 329.765 331.951 333.696 334.286 334.391 334.047 333.309 332.246 330.937 329.470 327.933 326.416 325.000 324.228 323.652 323.280 323.110 323.128 323.310 323.627 324.040 324.512 325.000 325.155 325.278 325.363 325.408 325.411 325.377 325.311 325.220 325.113 325.000 324.958 324.921 324.894 324.877 324.872 324.880 324.898 324.926 324.961 325.000 325.040 325.077 325.108 325.130 325.140 325.137 325.120 325.090 325.049 325.000 324.818 324.653 324.523 324.448 324.445 324.532 324.721 325.023 325.443 325.983 326.817 327.743 328.734 329.761 330.791 331.794 332.740 333.603 334.362 335.000 335.138 335.174 335.142 335.080 335.024 335.013 335.080 335.252 335.550 335.983 336.989 338.085 339.215 340.317 341.327 342.180 342.818 343.187 343.243 342.958 341.826 340.381 338.681 336.797 334.807 332.799 330.860 329.078 327.534 326.304 325.671 325.443 325.637 326.254 327.278 328.682 330.422 332.445 334.685 337.069 339.625 342.160 344.582 346.806 348.752 350.351 351.549 352.304 352.596 352.419 351.244 349.700 347.884 345.907 343.886 341.939 340.179 338.711 337.627 337.000 337.577 338.631 340.108 341.935 344.028 346.288 348.614 350.905 353.062 355.000 355.869 356.454 356.780 356.885 356.820 356.640 356.406 356.180 356.017 355.970 356.718 357.595 358.566 359.586 360.605 361.572 362.435 363.147 363.667 363.964 363.395 362.632 361.735 360.772 359.816 358.941 358.221 357.722 357.502 357.609 358.529 359.782 361.330 363.120 365.089 367.165 369.271 371.330 373.263 375.000 376.165 377.042 377.616 377.881 377.845 377.523 376.943 376.139 375.153 374.032 372.786 371.511 370.262 369.094 368.055 367.188 366.528 366.099 365.917 365.985 366.516 367.252 368.146 369.145 370.187 371.213 372.161 372.975 373.603 374.003 373.809 373.364 372.690 371.817 370.785 369.642 368.438 367.227 366.064 365.000 364.162 363.504 363.053 362.828 362.837 363.079 363.544 364.211 365.050 366.024 367.276 368.553 369.789 370.914 371.865 372.582 373.018 373.135 372.910 372.335 370.865 369.127 367.208 365.207 363.226 361.368 359.732 358.408 357.475 356.993 357.597 358.663 360.139 361.958 364.036 366.283 368.600 370.887 373.050 375.000 376.137 376.969 377.494 377.725 377.687 377.416 376.958 376.365 375.693 375.000 374.503 374.080 373.765 373.586 373.564 373.713 374.036 374.531 375.186 375.982 376.953 378.002 379.086 380.161 381.181 382.100 382.878 383.478 383.869 384.030 383.669 383.084 382.306 381.371 380.323 379.207 378.070 376.962 375.925 375.000 374.378 373.914 373.613 373.473 373.483 373.626 373.878 374.213 374.598 375.000 375.358 375.669 375.904 376.037 376.048 375.922 375.650 375.230 374.668 373.979 372.901 371.769 370.642 369.580 368.643 367.889 367.370 367.130 367.201 367.605 368.756 370.208 371.907 373.790 375.788 377.827 379.835 381.740 383.480 385.000 385.657 386.074 386.284 386.330 386.263 386.136 386.001 385.909 385.904 386.021 386.855 387.796 388.794 389.792 390.729 391.539 392.163 392.543 392.632 392.396 391.211 389.726 388.003 386.114 384.141 382.170 380.287 378.578 377.121 375.984 375.594 375.588 375.961 376.691 377.745 379.077 380.633 382.349 384.158 385.993 387.570 389.057 390.412 391.599 392.587 393.352 393.880 394.163 394.200 394.002 393.548 392.898 392.083 391.138 390.102 389.017 387.924 386.865 385.878 385.000 384.245 383.657 383.257 383.059 383.070 383.289 383.709 384.314 385.081 385.982 387.034 388.146 389.272 390.367 391.386 392.286 393.030 393.584 393.924 394.032 393.633 393.017 392.216 391.267 390.215 389.106 387.986 386.901 385.893 385.000 384.582 384.305 384.157 384.121 384.176 384.298 384.462 384.647 384.831 385.000 384.529 384.081 383.708 383.462 383.395 383.550 383.962 384.651 385.626 386.876 389.207 391.673 394.144 396.487 398.565 400.250 401.427 402.000 401.896 401.073 398.370 395.062 391.302 387.267 383.148 379.141 375.441 372.230 369.673 367.905 368.117 369.193 371.068 373.648 376.808 380.406 384.285 388.282 392.233 395.983 398.471 400.581 402.293 403.607 404.540 405.125 405.408 405.441 405.285 405.000 405.197 405.329 405.399 405.404 405.340 405.197 404.969 404.648 404.227 403.704 402.585 401.414 400.244 399.126 398.112 397.248 396.573 396.119 395.905 395.940 396.685 397.616 398.667 399.759 400.815 401.756 402.506 402.999 403.180 403.007 401.877 400.415 398.680 396.748 394.702 392.635 390.639 388.807 387.224 385.967 385.461 385.357 385.657 386.343 387.384 388.735 390.339 392.130 394.035 395.976 397.727 399.373 400.853 402.113 403.104 403.787 404.133 404.126 403.757 403.033 401.791 400.256 398.483 396.534 394.478 392.384 390.324 388.365 386.572 385.000 383.867 383.025 382.484 382.245 382.296 382.620 383.187 383.964 384.910 385.982 386.984 388.036 389.106 390.164 391.185 392.142 393.017 393.792 394.456 395.000 395.376 395.633 395.782 395.832 395.801 395.703 395.556 395.379 395.188 395.000 394.812 394.655 394.538 394.468 394.450 394.483 394.564 394.684 394.834 395.000 395.228 395.436 395.600 395.698 395.710 395.618 395.409 395.074 394.609 394.018 392.936 391.783 390.613 389.478 388.432 387.523 386.793 386.278 386.000 385.970 386.818 387.844 388.969 390.109 391.177 392.090 392.774 393.169 393.228 392.927 391.227 389.270 387.183 385.105 383.177 381.541 380.325 379.642 379.580 380.201 382.660 385.721 389.245 393.070 397.014 400.887 404.495 407.656 410.199 411.979 411.834 410.824 408.993 406.417 403.202 399.471 395.368 391.047 386.663 382.372 378.851 375.649 372.837 370.464 368.563 367.145 366.207 365.726 365.664 365.968 366.491 367.259 368.202 369.251 370.332 371.377 372.320 373.104 373.681 374.015 373.734 373.202 372.451 371.521 370.459 369.317 368.150 367.010 365.946 365.000 364.621 364.383 364.266 364.242 364.277 364.333 364.371 364.356 364.251 364.030 363.202 362.267 361.260 360.225 359.209 358.258 357.421 356.740 356.255 355.995 356.296 356.828 357.566 358.474 359.512 360.635 361.794 362.939 364.022 365.000 365.583 366.013 366.288 366.412 366.398 366.262 366.026 365.718 365.366 365.000 364.620 364.289 364.036 363.888 363.868 363.990 364.264 364.692 365.270 365.983 367.058 368.203 369.368 370.500 371.545 372.455 373.187 373.706 373.987 374.018 373.213 372.221 371.118 369.987 368.910 367.970 367.244 366.798 366.684 366.937 368.258 369.898 371.778 373.800 375.859 377.848 379.656 381.183 382.335 383.037 382.525 381.535 380.112 378.324 376.250 373.984 371.624 369.274 367.035 365.000 363.678 362.679 362.024 361.719 361.756 362.116 362.764 363.660 364.752 365.983 367.052 368.162 369.272 370.343 371.336 372.217 372.951 373.512 373.873 374.017 373.986 373.709 373.178 372.391 371.353 370.076 368.579 366.885 365.026 363.037 360.819 358.568 356.343 354.202 352.202 350.397 348.834 347.555 346.591 345.967 345.764 345.909 346.386 347.170 348.228 349.517 350.990 352.594 354.272 355.967 357.652 359.243 360.687 361.940 362.962 363.727 364.217 364.426 364.358 364.033 363.080 361.970 360.785 359.609 358.527 357.618 356.953 356.592 356.578 356.937 358.297 359.971 361.876 363.913 365.977 367.959 369.750 371.250 372.369 373.033 372.407 371.311 369.801 367.952 365.851 363.596 361.286 359.022 356.899 355.000 353.992 353.280 352.851 352.675 352.710 352.903 353.193 353.516 353.805 353.998 353.653 353.140 352.450 351.585 350.557 349.382 348.087 346.702 345.264 343.812 342.429 341.108 339.886 338.796 337.867 337.124 336.587 336.268 336.174 336.302 336.770 337.426 338.238 339.170 340.181 341.229 342.273 343.272 344.192 345.000 345.304 345.483 345.556 345.546 345.477 345.373 345.258 345.149 345.061 345.000 345.470 345.915 346.279 346.501 346.522 346.289 345.753 344.881 343.648 342.050 339.337 336.365 333.240 330.084 327.019 324.166 321.640 319.545 317.966 316.967 317.369 318.337 319.791 321.632 323.745 326.006 328.286 330.459 332.406 334.018 334.547 334.646 334.327 333.623 332.583 331.274 329.773 328.166 326.545 325.000 323.775 322.777 322.065 321.683 321.663 322.020 322.753 323.846 325.266 326.963 329.240 331.630 334.021 336.295 338.342 340.055 341.340 342.123 342.348 341.984 340.176 337.869 335.180 332.247 329.215 326.235 323.455 321.013 319.031 317.609 317.735 318.457 319.709 321.400 323.423 325.652 327.956 330.201 332.257 334.002 334.589 334.744 334.469 333.784 332.726 331.348 329.714 327.897 325.975 324.027 322.424 320.916 319.541 318.330 317.304 316.474 315.842 315.399 315.127 315.000 315.035 315.140 315.269 315.373 315.403 315.313 315.062 314.615 313.945 313.037 311.553 309.858 307.995 306.017 303.980 301.946 299.975 298.126 296.452 295.000 294.174 293.603 293.270 293.153 293.220 293.436 293.761 294.156 294.581 295.000 294.920 294.819 294.719 294.642 294.615 294.662 294.807 295.066 295.453 295.970 297.142 298.383 299.625 300.801 301.840 302.677 303.254 303.522 303.446 )
