New loadshape.LS_PhaseA npts=1440 sinterval=60 pmult=(545.490234 541.132182 536.477076 531.646247 526.773587 521.999598 517.465110 513.304907 509.641524 506.579457 504.200012 503.299277 503.093683 503.514534 504.468156 505.840174 507.500549 509.309203 511.122009 512.796929 514.200073 514.616839 514.594079 514.101550 513.129206 511.686907 509.803489 507.525239 504.913849 502.043911 499.000061 495.835511 492.685126 489.647841 486.819425 484.289055 482.136147 480.427521 479.215010 478.533581 478.400024 478.930284 479.975923 481.488077 483.402026 485.639642 488.112275 490.724012 493.375172 495.965938 498.399994 500.305392 501.911049 503.173527 504.061740 504.557524 504.655841 504.364611 503.704190 502.706521 501.413971 499.783087 497.974633 496.060610 494.115631 492.214367 490.429039 488.827013 487.468591 486.405052 485.677002 485.250325 485.208406 485.558818 486.295122 487.396928 488.830404 490.549252 492.496102 494.604302 496.800049 499.117558 501.355501 503.424512 505.239721 506.724159 507.811991 508.451426 508.607223 508.262676 507.420990 505.492849 503.186976 500.616851 497.907507 495.190151 492.596574 490.253551 488.277429 486.769125 485.809692 486.011360 486.802957 488.143410 489.969224 492.197691 494.730797 497.459657 500.269311 503.043704 505.670654 507.520383 509.075415 510.303744 511.187174 511.721106 511.913858 511.785558 511.366667 510.696191 509.819672 508.715935 507.511981 506.265754 505.032361 503.861594 502.795712 501.867544 501.098988 500.499976 500.067932 500.127636 500.284914 500.474225 500.624222 500.661523 500.514630 500.117825 499.414890 498.362502 496.933136 494.219281 491.204707 487.992041 484.694236 481.429013 478.313110 475.456562 472.957258 470.895995 469.332245 469.304934 469.732951 470.515718 471.535937 472.666039 473.775091 474.735885 475.431918 475.763950 475.655884 473.644902 471.249784 468.601577 465.850479 463.158043 460.688887 458.602257 457.043782 456.137773 455.980377 457.887901 460.522737 463.768336 467.480776 471.495947 475.637580 479.725817 483.585960 487.057060 490.000000 491.186510 491.758050 491.768362 491.301115 490.465733 489.392260 488.225485 487.118523 486.226117 485.697876 485.967720 486.830904 488.361365 490.608981 493.597291 497.322077 501.750861 506.823334 512.452709 518.527954 525.068568 531.762735 538.435348 544.904697 550.988641 556.510899 561.307247 565.231434 568.160596 570.000000 570.076741 569.025341 566.903412 563.798947 559.826634 555.123389 549.843308 544.152183 538.221787 532.224121 526.568810 521.145990 516.077176 511.467322 507.402580 503.948706 501.150139 499.029771 497.589374 496.810669 496.627608 497.020973 497.926165 499.267294 500.960290 502.916198 505.044542 507.256654 509.468856 511.605377 513.127171 514.494881 515.708052 516.776259 517.717142 518.554176 519.314298 520.025495 520.714456 521.404419 522.541603 523.672246 524.765252 525.785836 526.697593 527.464758 528.054556 528.439526 528.599708 528.524597 527.503787 526.321385 525.059869 523.806685 522.650167 521.675403 520.960200 520.571334 520.561208 520.965088 522.401293 524.211973 526.323486 528.648406 531.089880 533.546381 535.916676 538.104800 540.024842 541.605347 541.878175 541.804363 541.448865 540.891187 540.221008 539.533407 538.923946 538.483772 538.294967 538.426331 539.616565 541.151644 542.987397 545.064901 547.313954 549.657064 552.013764 554.305087 556.458009 558.409668 559.421449 560.211664 560.823216 561.312472 561.746624 562.200630 562.753834 563.486413 564.475762 565.792969 567.607680 569.849129 572.542847 575.698755 579.310217 583.353652 587.788723 592.559091 597.593732 602.808777 608.193661 613.556750 618.784065 623.760899 628.375748 632.524230 636.112873 639.062632 641.312015 642.819702 643.008611 642.487985 641.330900 639.628011 637.483654 635.011591 632.330522 629.559551 626.813754 624.200012 622.150454 620.377909 618.917703 617.789573 616.998287 616.534821 616.378031 616.496721 616.852029 617.400024 617.686415 618.108818 618.656535 619.319364 620.087622 620.952108 621.904019 622.934845 624.036257 625.200012 626.524801 627.886244 629.267633 630.653603 632.030810 633.388577 634.719475 636.019821 637.290045 638.534912 639.209703 639.927143 640.749128 641.734898 642.937440 644.400118 646.153676 648.213750 650.579014 653.230042 656.803007 660.512060 664.230783 667.825872 671.163577 674.116356 676.569448 678.427132 679.618391 680.101746 678.735139 676.776844 674.382173 671.730347 669.016969 666.445870 664.220616 662.536009 661.569876 661.475464 663.146371 665.828364 669.504093 674.121320 679.595619 685.814135 692.640249 699.918965 707.482818 715.158081 722.117421 728.904732 735.416107 741.557045 747.243711 752.403837 756.977289 760.916305 764.185445 766.761292 768.727318 769.977757 770.514081 770.348059 769.501203 768.004122 765.895771 763.222628 760.037790 756.400024 752.165794 747.626794 742.869170 737.978201 733.036158 728.120333 723.301285 718.641338 714.193393 710.000061 706.139075 702.582124 699.335415 696.395293 693.749316 691.377588 689.254267 687.349214 685.629693 684.062073 682.124367 680.315821 678.648488 677.133570 675.779698 674.591284 673.567015 672.698597 671.969822 671.356018 671.339087 671.319752 671.207818 670.912736 670.348034 669.435773 668.110844 666.324931 664.049951 661.280823 657.054948 652.484063 647.718514 642.922486 638.266909 633.922071 630.050228 626.798470 624.292127 622.628967 622.667448 623.576057 625.282826 627.685870 630.658110 634.052881 637.710223 641.463598 645.146789 648.600708 650.905085 652.777339 654.177384 655.084657 655.497252 655.430425 654.914544 653.992586 652.717289 651.148071 649.450030 647.573557 645.571449 643.492436 641.379155 639.266437 637.179970 635.135366 633.137674 631.181335 629.182813 627.191189 625.178511 623.109448 620.942882 618.633796 616.135404 613.401449 610.388596 607.058838 603.285365 599.153713 594.662537 589.822592 584.657544 579.204436 573.513781 567.649249 561.686949 555.714294 549.474664 543.456155 537.797768 532.637585 528.108106 524.331658 521.416026 519.450451 518.502143 518.613403 519.993573 522.418510 525.830860 530.147128 535.259975 541.041239 547.345577 554.014629 560.881574 567.775940 574.377221 580.688753 586.569933 591.893333 596.547940 600.441955 603.505087 605.690274 606.974763 607.360535 606.443982 604.740486 602.356467 599.413246 596.041983 592.378397 588.557495 584.708458 580.949876 577.385498 574.430412 571.790346 569.479852 567.493033 565.805130 564.374832 563.147190 562.057021 561.032674 560.000000 558.606775 557.091584 555.418280 553.559690 551.499107 549.231404 546.763757 544.115921 541.320067 538.420166 535.179614 531.977144 528.907720 526.068437 523.554523 521.455348 519.850565 518.806536 518.373161 518.581238 519.692142 521.419763 523.708370 526.482435 529.648981 533.100514 536.718464 540.377001 543.947119 547.300842 550.068802 552.407070 554.234513 555.483338 556.100779 556.050387 555.312896 553.886640 551.787511 549.048462 545.446931 541.340314 536.827315 532.014581 527.012864 521.933153 516.882882 511.962359 507.261531 502.857178 499.698454 496.870788 494.328423 492.016517 489.876133 487.849243 485.883506 483.936560 481.979599 480.000031 475.156462 470.551971 466.456363 463.123538 460.773326 459.574271 459.628183 460.957237 463.494281 467.076965 476.856886 486.621805 495.497927 502.597145 507.061554 508.107938 505.070421 497.439522 484.895960 467.337677 436.755830 402.360887 365.430535 327.386960 289.735169 253.997695 221.648168 194.046307 172.376818 157.594589 159.159926 167.904502 183.158757 204.006226 229.330228 257.867575 288.267132 319.150920 349.175407 377.090607 394.232224 407.916128 418.073313 424.812489 428.401110 429.240535 427.836525 424.766439 420.644549 416.086975 416.560948 417.273597 418.266966 419.526267 420.986893 422.543980 424.063953 425.397446 426.392918 426.910309 423.811954 420.305394 416.596811 412.910409 409.478102 406.528583 404.276212 402.910195 402.584521 403.409088 407.340719 412.318978 418.134818 424.540537 431.261096 438.006473 444.484600 450.414364 455.538203 459.633789 460.870236 460.921951 459.858527 457.795172 454.885956 451.315691 447.290783 443.029441 438.751606 434.669006 432.082754 429.956254 428.336028 427.242074 426.669090 426.588655 426.952227 427.694811 428.739114 430.000000 430.581246 431.274118 432.060893 432.923575 433.843079 434.798343 435.765468 436.716929 437.620962 438.441162 439.638096 440.621648 441.302060 441.592197 441.411371 440.689117 439.368772 437.410722 434.795167 431.524292 426.886883 421.731844 416.191760 410.413777 404.553902 398.771011 393.220784 388.049779 383.389868 379.353241 376.765718 374.888178 373.693040 373.130251 373.130998 373.612041 374.480467 375.638677 376.989372 378.440369 378.890246 379.375234 379.923822 380.571657 381.357696 382.320138 383.492328 384.898851 386.551986 388.448730 391.575351 394.800208 397.983922 400.979623 403.639651 405.822499 407.399724 408.262541 408.327827 407.543274 404.571649 400.865277 396.588830 391.930873 387.095421 382.292941 377.731138 373.605887 370.092648 367.338715 366.700848 366.900843 367.868280 369.501407 371.673392 374.239501 377.044887 379.932663 382.751939 385.365479 386.390594 387.112898 387.574492 387.837582 387.979910 388.089510 388.259027 388.579840 389.136260 390.000031 391.995061 394.316325 396.910521 399.706402 402.617674 405.546537 408.387755 411.033078 413.375850 415.315643 416.259928 416.681384 416.563286 415.904392 414.718749 413.035048 410.895594 408.354909 405.478030 402.338562 399.129478 395.811850 392.462880 389.160719 385.982789 383.004153 380.295940 377.923870 375.946897 374.415985 373.035284 372.202208 371.965283 372.358207 373.397792 375.082366 377.390706 380.281566 383.693861 387.547516 392.337662 397.310579 402.293275 407.110128 411.589842 415.572351 418.915416 421.500666 423.238847 424.074066 422.671788 420.475495 417.647784 414.373942 410.852563 407.285744 403.869222 400.782890 398.182037 396.189697 396.577588 397.557560 398.990460 400.709763 402.531597 404.265544 405.725767 406.741980 407.169801 406.900024 403.627820 399.764581 395.524540 391.150797 386.902978 383.044119 379.827310 377.482655 376.205091 376.143585 379.691183 384.385050 390.008357 396.303284 402.984174 409.751839 416.308422 422.372228 427.691898 432.059357 432.840158 432.637438 431.628368 430.034738 428.110644 426.128895 424.366677 423.091085 422.545107 422.934631 426.565953 431.204304 436.713218 442.911915 449.584850 456.492645 463.383940 470.007682 476.125331 481.522491 484.059809 485.730588 486.605867 486.790104 486.413989 485.626252 484.584813 483.447678 482.363958 481.465393 482.175648 483.138056 484.287216 485.533583 486.768633 487.870934 488.712839 489.167558 489.116290 488.455139 486.275703 483.422016 479.935145 475.881197 471.349294 466.448726 461.305381 456.057597 450.851536 445.836273 440.988239 436.627936 432.897524 429.921243 427.800342 426.608694 426.389274 427.151637 428.870518 431.485626 435.768308 440.656473 445.926124 451.339013 456.652770 461.631260 466.054779 469.729706 472.497239 474.240875 473.253054 471.295484 468.537705 465.185195 461.468823 457.633399 453.925789 450.583043 447.821036 445.824036 446.369824 447.779583 449.965412 452.801777 456.133085 459.782435 463.561193 467.278968 470.753582 473.820618 474.693392 475.059200 474.985431 474.564828 473.909555 473.144479 472.399953 471.804436 471.477244 471.521759 473.219694 475.321237 477.754485 480.428177 483.236816 486.066437 488.800762 491.327496 493.544482 495.365448 495.551392 495.336977 494.803983 494.051014 493.188211 492.331481 491.596502 491.092742 490.917728 491.151825 492.663171 494.605432 496.919841 499.527825 502.334941 505.235463 508.117426 510.867931 513.378505 515.550293 516.497557 517.025266 517.153667 516.918625 516.369273 515.565216 514.573427 513.464954 512.311587 511.182617 510.573923 510.071130 509.685135 509.419778 509.272879 509.237567 509.303823 509.460154 509.695318 510.000000 509.909160 509.920783 510.076257 510.418255 510.988760 511.827037 512.967618 514.438385 516.258838 518.438599 521.014800 523.930900 527.158572 530.657908 534.378037 538.258156 542.228929 546.214246 550.133286 553.902832 557.577509 560.929350 563.871964 566.328253 568.233680 569.539240 570.214034 570.247316 569.649945 568.455139 566.058303 563.251991 560.186335 557.021798 553.922712 551.050630 548.557747 546.580609 545.234351 544.607666 545.277503 546.704458 548.836476 551.591581 554.861244 558.514661 562.403787 566.368946 570.244836 573.866699 576.640907 578.896813 580.541341 581.499073 581.714198 581.151905 579.799186 577.665050 574.780154 571.195862 566.814417 561.904583 556.582917 550.976441 545.218653 539.445454 533.791077 528.384186 523.344221 518.778137 514.998580 511.840211 509.340295 507.518420 506.377316 505.904191 506.072489 506.844007 508.171260 510.000000 511.793533 514.011103 516.631395 519.630442 522.981045 526.652187 530.608498 534.809823 539.210941 543.761475 548.721832 553.689607 558.575568 563.291004 567.750533 571.874904 575.593697 578.847807 581.591633 583.794861 584.751586 585.215674 585.263701 584.981578 584.459928 583.789383 583.055980 582.336838 581.696298 581.182678 581.563572 582.048904 582.568411 583.039531 583.372433 583.475447 583.260654 582.649410 581.577551 580.000061 576.687339 572.953423 568.926919 564.751488 560.579173 556.563370 552.851733 549.579301 546.862128 544.791687 544.729022 545.295376 546.382079 547.859967 549.586951 551.416103 553.203922 554.818411 556.146642 557.101440 555.733130 554.074964 552.295836 550.581961 549.126126 548.116537 547.725729 548.100023 549.349981 551.542297 556.818890 562.836518 569.331248 576.007586 582.552475 588.650181 593.997461 598.318417 601.378419 602.996521 600.496514 596.611604 591.578070 585.681970 579.244877 572.608278 566.117268 560.104169 554.872751 550.683655 549.856141 550.230853 551.703990 554.117534 557.268497 560.919912 564.813105 568.680755 572.260207 575.306519 576.089047 576.084086 575.287607 573.734927 571.498045 568.681613 565.417705 561.859624 558.174964 554.538208 551.263243 548.357718 545.961807 544.196135 543.156516 542.909544 543.489195 544.894583 547.088957 550.000000 554.278298 558.969204 563.847266 568.673416 573.205188 577.207202 580.461495 582.777351 584.000212 584.019348 581.285547 577.407384 572.553528 566.932287 560.781950 554.360079 547.932146 541.759965 536.090337 531.144348 528.230332 526.269395 525.264482 525.177021 525.930102 527.413039 529.487082 531.992079 534.753793 537.591614 539.666527 541.528573 543.075608 544.219999 544.890908 545.035983 544.622428 543.637433 542.087973 540.000000 537.148850 533.882074 530.294257 526.487947 522.569178 518.642963 514.808926 511.157252 507.765084 504.693512 502.542674 500.731716 499.218192 497.945478 496.846723 495.849234 494.879096 493.865837 492.746939 491.471985 489.209811 486.809937 484.340345 481.881644 479.523215 477.358921 475.482566 473.983279 472.940988 472.422180 472.867479 473.879529 475.433247 477.483617 479.966865 482.802264 485.894523 489.136647 492.413206 495.603882 498.246062 500.592129 502.556472 504.059253 505.027941 505.398733 505.117841 504.142623 502.442551 500.000000 497.065376 493.373704 488.928183 483.748707 477.872938 471.356960 464.275457 456.721358 448.804911 440.652161 431.511596 422.498620 413.843281 405.769802 398.487817 392.183938 387.013972 383.096101 380.505280 379.269104 380.753834 383.382634 386.921887 391.106991 395.654355 400.274063 404.682721 408.616009 411.840425 414.163788 413.332096 411.551212 408.966271 405.761959 402.151137 398.362414 394.627226 391.166936 388.180525 385.833374 386.439224 387.690545 389.427612 391.456785 393.561599 395.514960 397.091928 398.082533 398.304087 397.612457 393.712469 388.953582 383.532509 377.684890 371.674270 365.779904 360.283885 355.458088 351.551459 348.778137 348.875903 350.253414 352.839682 356.516678 361.125352 366.473109 372.342423 378.500250 384.707888 390.730896 395.191651 399.151123 402.534017 405.288867 407.387455 408.823424 409.610233 409.778545 409.373215 ) qmult=(135.045546 134.244237 133.427471 132.621956 131.856982 131.163144 130.570954 130.109413 129.804580 129.678218 129.746550 130.254219 130.948067 131.803550 132.790517 133.874415 135.017631 136.180919 137.324877 138.411399 139.405074 140.196055 140.843585 141.333493 141.657368 141.812630 141.802407 141.635218 141.324482 140.887873 140.346541 139.781232 139.154973 138.489372 137.806427 137.127822 136.474250 135.864756 135.316140 134.842420 134.454390 134.256574 134.146984 134.117347 134.156592 134.251495 134.387389 134.548894 134.720648 134.888011 135.037719 135.145224 135.216235 135.245664 135.231275 135.173734 135.076537 134.945823 134.790068 134.619687 134.446547 134.330414 134.233055 134.163533 134.130541 134.142022 134.204795 134.324195 134.503738 134.744833 135.046538 135.437143 135.875851 136.351451 136.850548 137.357880 137.856681 138.329116 138.756756 139.121093 139.404082 139.741615 139.952978 140.012517 139.898874 139.596274 139.095649 138.395549 137.502801 136.432876 135.209945 133.646066 132.020324 130.397684 128.846280 127.434737 126.229397 125.291584 124.674969 124.423174 124.567672 125.505933 126.828209 128.490957 130.439024 132.607998 134.926850 137.320767 139.714071 142.033120 144.209090 145.928721 147.414066 148.644737 149.610264 150.309753 150.751201 150.950515 150.930299 150.718434 150.346541 150.049158 149.641867 149.142053 148.567031 147.933771 147.258665 146.557352 145.844584 145.134129 144.438720 143.792374 143.181941 142.615020 142.098315 141.637785 141.238777 140.906131 140.644262 140.457196 140.348555 140.276515 140.292176 140.401110 140.607538 140.913872 141.320271 141.824232 142.420227 143.099431 143.849547 144.859981 145.888942 146.897447 147.845914 148.695715 149.410703 149.958676 150.312702 150.452275 150.364241 149.861871 149.145320 148.240838 147.180846 146.002449 144.745779 143.452245 142.162748 140.915930 139.746535 138.957549 138.274578 137.690967 137.194940 136.770662 136.399449 136.061075 135.735110 135.402246 135.045546 134.533891 133.986614 133.409158 132.811209 132.206346 131.611511 131.046315 130.532205 130.091534 129.746550 129.598065 129.577921 129.695643 129.957676 130.366965 130.922624 131.619695 132.449007 133.397145 134.446547 135.640681 136.883965 138.142927 139.382224 140.565644 141.657137 142.621864 143.427230 144.043864 144.446532 144.676330 144.652471 144.361465 143.797007 142.960524 141.861498 140.517559 138.954325 137.204992 135.309676 133.234888 131.117633 129.019004 127.001380 125.126410 123.452972 122.035173 120.920451 120.147852 119.746535 119.928722 120.489575 121.407202 122.649307 124.174446 125.933524 127.871505 129.929261 132.045515 134.158797 136.187490 138.099936 139.846828 141.385247 142.679833 143.703694 144.439058 144.877623 145.020616 144.878554 144.438346 143.761758 142.885680 141.852404 140.708008 139.500635 138.278718 137.089200 135.975829 134.977568 134.286155 133.754203 133.386125 133.179229 133.124204 133.205818 133.403797 133.693845 134.048783 134.439742 134.869106 135.274735 135.627238 135.900425 136.072439 136.126720 136.052760 135.846630 135.511257 135.056426 134.389037 133.649718 132.875116 132.105029 131.380622 130.742566 130.229151 129.874460 129.706672 129.746550 130.255820 130.965816 131.848933 132.870010 133.987773 135.156479 136.327728 137.452345 138.482297 139.372557 140.025962 140.471247 140.686545 140.658006 140.380315 139.856947 139.100114 138.130434 136.976315 135.673079 134.205600 132.679583 131.148308 129.665942 128.285541 127.057056 126.025429 125.228829 124.697095 124.450454 124.773266 125.366092 126.193998 127.213904 128.376582 129.628833 130.915776 132.183162 133.379627 134.458800 135.183682 135.738007 136.116171 136.320859 136.362500 136.258438 136.031861 135.710530 135.325364 134.908934 134.665971 134.440339 134.246975 134.098807 134.006499 133.978292 134.019922 134.134625 134.323211 134.584212 134.963276 135.402218 135.890094 136.415229 136.965817 137.530503 138.098916 138.662125 139.213011 139.746535 140.189458 140.617350 141.037509 141.458432 141.889118 142.338325 142.813817 143.321618 143.865328 144.445525 145.241180 146.047982 146.840626 147.591872 148.273655 148.858250 149.319444 149.633678 149.781103 149.746535 149.460556 148.984622 148.326244 147.498865 146.521513 145.418279 144.217609 142.951460 141.654328 140.362181 139.182052 138.072341 137.061098 136.174232 135.434850 134.862654 134.473407 134.278485 134.284521 134.493163 134.960395 135.613163 136.433096 137.397713 138.481098 139.654632 140.887789 142.148950 143.406231 144.628295 145.837529 146.949418 147.934417 148.766778 149.425290 149.893880 150.162040 150.225092 150.084257 149.746535 149.183836 148.457332 147.592179 146.616699 145.561251 144.457049 143.334944 142.224232 141.151524 140.139708 139.377981 138.693853 138.080777 137.528004 137.021382 136.544277 136.078557 135.605623 135.107417 134.567397 133.912556 133.196194 132.415736 131.572118 130.669779 129.716501 128.723106 127.703043 126.671851 125.646544 124.706331 123.802042 122.946096 122.150298 121.425460 120.781032 120.224766 119.762406 119.397442 119.130904 119.068040 119.089063 119.178579 119.319856 119.495565 119.688523 119.882414 120.062447 120.215942 120.332808 120.341273 120.307513 120.235999 120.133670 120.009401 119.873385 119.736446 119.609328 119.501979 119.422866 119.541558 119.684636 119.839692 119.992798 120.129174 120.233906 120.292654 120.292341 120.221791 120.072280 119.764329 119.375397 118.912178 118.383982 117.802270 117.180094 116.531475 115.870736 115.211829 114.567672 114.123971 113.700580 113.289959 112.883537 112.472377 112.047851 111.602293 111.129595 110.625721 110.089110 109.383085 108.661084 107.941123 107.242391 106.584218 105.985002 105.461145 105.026043 104.689178 104.455352 104.627395 104.870352 105.148102 105.422301 105.654317 105.807199 105.847594 105.747540 105.486054 105.050460 104.197236 103.193698 102.075671 100.886172 99.673556 98.489447 97.386506 96.416133 95.626181 95.058776 95.022931 95.244994 95.717232 96.423227 97.338652 98.432298 99.667297 101.002503 102.393979 103.796538 105.110128 106.352233 107.487164 108.482920 109.312017 109.952143 110.386648 110.604844 110.602120 110.379866 109.964944 109.347956 108.544665 107.575193 106.463304 105.235584 103.920559 102.547770 101.146831 99.746520 98.518278 97.330117 96.191915 95.111461 94.094778 93.146502 92.270276 91.469150 90.745962 90.103667 89.487642 88.964844 88.544495 88.235832 88.047735 87.988286 88.064309 88.280885 88.640886 89.144530 89.930007 90.838021 91.847598 92.935702 94.077955 95.249380 96.425136 97.581230 98.695163 99.746520 100.686256 101.533379 102.278679 102.915934 103.441778 103.855461 104.158531 104.354445 104.448130 104.445525 104.494856 104.448918 104.302569 104.051537 103.692832 103.225131 102.649118 101.967755 101.186465 100.313231 99.284416 98.193320 97.061000 95.909509 94.761069 93.637208 92.557893 91.540700 90.600052 89.746550 88.803619 87.968587 87.253200 86.662585 86.194444 85.838575 85.576769 85.383123 85.224793 85.063201 86.295653 87.321645 87.980433 88.129694 87.655985 86.484261 84.586021 81.985654 78.764623 75.063201 67.854118 60.881238 54.703934 49.884765 46.961193 46.417504 48.658074 53.983071 62.567645 74.445525 94.532025 117.091535 141.287372 12.012583 36.637723 59.990053 81.104446 99.088001 113.159325 122.683883 121.867646 116.248832 106.211637 92.303201 75.205920 55.705132 34.653437 167.110158 145.594805 125.112410 110.598782 98.132893 87.879778 79.894660 74.129621 70.444036 68.618208 68.369561 69.370658 71.268279 71.730750 72.561939 73.599639 74.703298 75.757646 76.674980 77.396098 77.889935 78.151993 78.201690 78.333862 78.321242 78.211766 78.063197 77.938901 77.903457 78.018291 78.337507 78.904077 79.746550 81.645572 83.760486 86.002338 88.270769 90.458832 92.458181 94.164389 95.482194 96.330440 96.646514 95.562062 93.961430 91.922287 89.540497 86.925566 84.195559 81.471680 78.872747 76.509752 74.480742 73.598238 73.125609 73.039168 73.297110 73.842161 74.604779 75.506771 76.465186 77.396323 78.219695 78.511300 78.590164 78.434242 78.033057 77.387725 76.510534 75.424109 74.160207 72.758185 71.263213 69.865558 68.461297 67.089822 65.789866 64.598184 63.548303 62.669355 61.985056 61.512845 61.263213 61.428257 61.798969 62.348057 63.042997 63.847543 64.723327 65.631499 66.534332 67.396739 68.187651 68.698771 69.108270 69.417780 69.634036 69.768018 69.833913 69.847960 69.827232 69.788395 69.746520 70.026312 70.297551 70.539704 70.730901 70.849253 70.874199 70.787831 70.576133 70.230076 69.746520 68.914450 67.976992 66.968642 65.928269 64.897486 63.918893 63.034241 62.282591 61.698543 61.310607 61.444330 61.781259 62.299898 62.972212 63.765044 64.641690 65.563571 66.491939 67.389548 68.222228 68.816254 69.304394 69.680758 69.945098 70.102456 70.162601 70.139286 70.049363 69.911780 69.746520 69.758132 69.764707 69.768289 69.770064 69.770529 69.769679 69.767207 69.762705 69.755842 69.746520 69.681087 69.618655 69.564644 69.524274 69.502212 69.502205 69.526722 69.576635 69.650934 69.746520 70.063918 70.372449 70.645835 70.858071 70.984763 71.004414 70.899625 70.658130 70.273651 69.746520 68.915460 67.977505 66.967336 65.924074 64.889625 63.906890 63.017907 62.261989 61.673946 61.282439 61.425855 61.772136 62.298735 62.976646 63.771903 64.647233 65.563789 66.482898 67.367768 68.185057 68.692848 69.100435 69.409269 69.625839 69.760847 69.828201 69.843886 69.824757 69.787313 69.746520 70.014120 70.273730 70.505932 70.689886 70.804559 70.830004 70.748612 70.546304 70.213602 69.746520 68.986271 68.116584 67.165854 66.167268 65.157581 64.175726 63.261320 62.453102 61.787381 61.296538 61.213531 61.335019 61.657666 62.172258 62.864272 63.714579 64.700280 65.795612 66.972914 68.203612 69.442242 70.680050 71.892561 73.057601 74.155852 75.171280 76.091431 76.907600 77.614857 78.211943 78.730841 79.144078 79.457342 79.678884 79.819083 79.889955 79.904600 79.876638 79.819635 79.746550 79.829559 79.905158 79.968772 80.015351 80.039996 80.038575 80.008302 79.948241 79.859706 79.746550 79.485232 79.225828 78.990499 78.802155 78.683318 78.654939 78.735228 78.938543 79.274385 79.746550 80.628584 81.611498 82.656988 83.723083 84.765943 85.741745 86.608568 87.328212 87.867884 88.201690 88.177631 87.933095 87.479664 86.837217 86.033111 85.101094 84.079984 83.012160 81.941926 80.913787 80.062207 79.326685 78.735100 78.310297 78.069286 78.022625 78.173988 78.519942 79.049942 79.746550 80.816889 81.981570 83.187333 84.379507 85.504417 86.511746 87.356766 88.002353 88.420711 88.594725 88.188376 87.566325 86.773780 85.863865 84.894929 83.927633 83.021954 82.234197 81.614157 81.202544 81.597378 82.198142 82.961495 83.835649 84.763260 85.684547 86.540484 87.275933 87.842603 88.201690 87.803368 87.201302 86.437987 85.564909 84.639659 83.722781 82.874449 82.151153 81.602498 81.268279 81.780626 82.495936 83.363318 84.322275 85.305712 86.243229 87.064552 87.702974 88.098658 88.201690 87.581235 86.642577 85.410669 83.923120 82.228463 80.384010 78.453392 76.503866 74.603492 72.818297 71.506166 70.397882 69.514302 68.868301 68.464770 68.300858 68.366463 68.644930 69.113937 69.746520 70.558283 71.467585 72.436724 73.428544 74.407888 75.342952 76.206473 76.976722 77.638271 78.182494 78.430037 78.578287 78.653603 78.686448 78.709573 78.756110 78.857639 79.042320 79.333169 79.746550 80.737676 81.821888 82.953932 84.084255 85.161644 86.135963 86.960869 87.596400 88.011313 88.185088 87.677669 86.962762 86.093800 85.133056 84.148748 83.211868 82.392874 81.758362 81.367855 81.270842 82.015884 83.069221 84.395900 85.949622 87.675068 89.510545 91.390832 93.250114 95.024905 96.656829 97.776260 98.689041 99.391251 99.888181 100.193502 100.328110 100.318725 100.196276 99.994173 99.746520 99.803678 99.851021 99.889402 99.917834 99.934072 99.935243 99.918514 99.881742 99.824085 99.746520 99.480548 99.218254 98.981674 98.793457 98.675769 98.649155 98.731416 98.936532 99.273702 99.746520 100.619380 101.593157 102.630499 103.690438 104.730132 105.706694 106.579017 107.309535 107.865866 108.222258 108.217008 107.997258 107.574593 106.968496 106.205502 105.318102 104.343437 103.321823 102.295179 101.305388 100.542506 99.880278 99.339236 98.935780 98.681847 98.584715 98.646939 98.866408 99.236527 99.746520 100.441859 101.239999 102.115473 103.041342 103.990186 104.935082 105.850547 106.713387 107.503450 108.204253 108.803426 109.293222 109.670322 109.935949 110.095665 110.159014 110.138999 110.051448 109.914256 109.746550 109.590152 109.439118 109.309237 109.214321 109.165502 109.170618 109.233696 109.354557 109.528568 109.746550 110.185805 110.621713 111.017271 111.334372 111.535550 111.585707 111.453787 111.114313 110.548736 109.746550 108.570430 107.175508 105.589804 103.849074 101.995563 100.076507 98.142452 96.245429 94.437066 92.766692 91.407241 90.258548 89.342556 88.674119 88.260603 88.101709 88.189517 88.508745 89.037219 89.746550 90.766070 91.881669 93.038855 94.182927 95.261171 96.224981 97.031816 97.646951 98.044921 98.210631 97.905791 97.391585 96.705433 95.892832 95.005149 94.097192 93.224656 92.441527 91.797564 91.335936 91.446931 91.768063 92.283256 92.967860 93.790061 94.712552 95.694384 96.692928 97.665867 98.573149 99.242413 99.792417 100.210737 100.491468 100.635307 100.649386 100.546859 100.346253 100.070621 99.746520 99.449790 99.158651 98.899341 98.697247 98.575849 98.555699 98.653477 98.881152 99.245289 99.746520 100.540976 101.441229 102.416016 103.429919 104.444746 105.421002 106.319398 107.102357 107.735454 108.188750 108.412625 108.417512 108.195059 107.744428 107.072404 106.193257 105.128347 103.905490 102.558096 101.124114 99.597623 98.072046 96.595099 95.213141 93.969412 92.902344 92.044012 91.418771 91.042148 90.920012 91.385760 92.059070 92.888258 93.815962 94.781857 95.725472 96.588996 97.319957 97.873679 98.215422 97.976981 97.522705 96.883624 96.100650 95.222408 94.302759 93.398120 92.564677 91.855612 91.318450 91.404150 91.694788 92.175040 92.821277 93.602950 94.484233 95.425834 96.386919 97.327049 98.208068 98.814434 99.315374 99.703580 99.977459 100.140892 100.202771 100.176341 100.078364 99.928156 99.7465