New loadshape.LS_PhaseA npts=17280 sinterval=5 pmult=(896.800720 897.486079 898.177469 898.878309 899.591413 900.318859 901.061895 901.820871 902.595225 903.383493 904.183374 904.991822 905.805177 906.480402 907.160198 907.848002 908.546644 909.258216 909.983970 910.724260 911.478518 912.245275 913.022214 913.806274 914.593775 915.240829 915.890998 916.547742 917.213915 917.891623 918.582134 919.285809 920.002085 920.729490 921.465704 922.207656 922.951653 923.553030 924.156148 924.764498 925.380954 926.007647 926.645856 927.295955 927.957384 928.628675 929.307505 929.990795 930.674843 931.214249 931.754139 932.298031 932.848826 933.408675 933.978875 934.559813 935.150939 935.750788 936.357038 936.966608 937.575793 938.038543 938.500668 938.965717 939.436618 939.915544 940.403812 940.901822 941.409037 941.924000 942.444392 942.967136 943.488525 943.861953 944.233831 944.607736 944.986624 945.372690 945.767273 946.170789 946.582715 947.001604 947.425145 947.850268 948.273272 948.547593 948.819620 949.092931 949.370481 949.654466 949.946228 950.246191 950.553840 950.867746 951.185620 951.504417 951.820472 951.985257 952.147341 952.310462 952.477734 952.651496 952.833211 953.023402 953.221620 953.426468 953.635652 953.846083 954.054009 954.113862 954.170799 954.228184 954.288734 954.354391 954.426231 954.504411 954.588160 954.675805 954.764840 954.852040 954.933594 954.859291 954.779377 954.697697 954.617512 954.541365 954.470962 954.407111 954.349690 954.297655 954.249098 954.201334 954.151032 953.952904 953.752713 953.554251 953.360646 953.174227 952.996430 952.827736 952.667657 952.514760 952.366735 952.220497 952.072332 951.773377 951.472515 951.173456 950.879283 950.592323 950.314042 950.044988 949.784767 949.532066 949.284711 949.039769 948.793682 948.399590 948.004581 947.612401 947.226163 946.848214 946.480035 946.122184 945.774267 945.434972 945.102119 944.772769 944.443356 943.966803 943.490429 943.017983 942.552586 942.096591 941.651490 941.217848 940.795288 940.382508 939.977348 939.576887 939.177577 938.632738 938.089325 937.551088 937.021149 936.501867 935.994737 935.500333 935.018287 934.547311 934.085257 933.629223 933.175681 932.578410 931.983927 931.395980 930.817687 930.251407 929.698638 929.159956 928.635002 928.122497 927.620306 927.125542 926.634694 926.002631 925.374763 924.754798 924.145816 923.550144 922.969258 922.403724 921.853178 921.316352 920.791135 920.274670 919.763492 919.111141 918.464549 917.827567 917.203416 916.594555 916.002569 915.428113 914.870882 914.329632 913.802236 913.285780 912.776699 912.132760 911.496078 910.870021 910.257315 909.659917 909.078933 908.514571 907.966126 907.432018 906.909860 906.396564 905.888489 905.238724 904.594495 903.959676 903.337579 902.730812 902.141176 901.569594 901.016085 900.479771 899.958932 899.451090 898.953134 898.324348 897.706191 897.102432 896.516184 895.949776 895.404660 894.881353 894.379423 893.897520 893.433433 892.984203 892.546255 891.975109 891.415372 890.870675 890.344042 889.837758 889.353276 888.891154 888.451038 888.031684 887.631011 887.246203 886.873838 886.371913 885.882701 885.409834 884.956331 884.524466 884.115672 883.730484 883.368519 883.028497 882.708301 882.405073 882.115348 881.696880 881.292105 880.904625 880.537431 880.192773 879.872059 879.575805 879.303608 879.054170 878.825359 878.614303 878.417523 878.093058 877.783001 877.490924 877.219791 876.971823 876.748406 876.550031 876.376274 876.225819 876.096513 875.985467 875.889183 875.665904 875.457458 875.267387 875.098627 874.953371 874.832980 874.737921 874.667748 874.621121 874.595866 874.589074 874.597225 874.477593 874.372968 874.286928 874.222436 874.181710 874.166124 874.176145 874.211314 874.270263 874.350772 874.449870 874.563960 874.553873 874.558425 874.580868 874.623855 874.689319 874.778389 874.891339 875.027576 875.185672 875.363426 875.557966 875.765886 875.841058 875.930293 876.037697 876.166809 876.320454 876.500627 876.708410 876.943935 877.206386 877.494033 877.804320 878.133972 878.346600 878.578377 878.832396 879.111035 879.415848 879.747478 880.105618 880.489009 880.895482 881.322034 881.764941 882.219914 882.539713 882.870465 883.215401 883.577222 883.957957 884.358864 884.780366 885.222016 885.682512 886.159743 886.650877 887.152476 887.525103 887.908143 888.305030 888.718580 889.150855 889.603065 890.075514 890.567572 891.077706 891.603532 892.141918 892.689115 893.101585 893.522437 893.955049 894.402194 894.865909 895.347393 895.846954 896.363983 896.896976 897.443589 898.000737 898.564726 898.992906 899.427545 899.872025 900.329121 900.800870 901.288476 901.792244 902.311567 902.844936 903.390007 903.943691 904.502287 904.922897 905.348046 905.781123 906.224915 906.681467 907.151988 907.636793 908.135276 908.645934 909.166427 909.693666 910.223955 910.614161 911.007062 911.406068 911.813976 912.232848 912.663905 913.107474 913.562960 914.028871 914.502874 914.981891 915.462234 915.802682 916.144025 916.489570 916.842025 917.203374 917.574782 917.956543 918.348057 918.747859 919.153674 919.562514 919.970812 920.230326 920.489603 920.752553 921.022462 921.301841 921.592310 921.894512 922.208083 922.531647 922.862868 923.198534 923.534683 923.736432 923.936887 924.138279 924.342149 924.549258 924.759519 924.971984 925.184859 925.395561 925.600812 925.796769 925.979187 925.993940 925.995089 925.986833 925.972967 925.956720 925.940628 925.926438 925.915053 925.906509 925.899998 925.893926 925.886011 925.742942 925.599682 925.460148 925.327509 925.204055 925.091117 924.989016 924.897058 924.813579 924.736016 924.661029 924.584656 924.358013 924.129557 923.902819 923.680745 923.465570 923.258719 923.060748 922.871318 922.689217 922.512411 922.338142 922.163048 921.845885 921.528217 921.213698 920.905373 920.605538 920.315649 920.036260 919.767005 919.506616 919.252985 919.003263 918.753990 918.361843 917.970399 917.583329 917.203691 916.833797 916.475118 916.128224 915.792763 915.467485 915.150301 914.838378 914.528277 914.076872 913.627578 913.184076 912.749431 912.325966 911.915160 911.517595 911.132930 910.759927 910.396510 910.039861 909.686553 909.193701 908.704503 908.222644 907.751193 907.292473 906.847971 906.418271 906.003040 905.601047 905.210223 904.827762 904.450246 903.934224 903.423516 902.921847 902.432327 901.957317 901.498328 901.055964 900.629902 900.218909 899.820904 899.433052 899.051903 898.536969 898.028833 897.530984 897.046306 896.576954 896.124265 895.688709 895.269874 894.866498 894.476530 894.097231 893.725313 893.215291 892.713567 892.224285 891.751007 891.296571 890.862979 890.451325 890.061757 889.693486 889.344833 889.013308 888.695740 888.254442 887.827340 887.417798 887.028486 886.661265 886.317106 885.996038 885.697150 885.418627 885.157820 884.911360 884.675307 884.304066 883.942793 883.594950 883.263446 882.950504 882.657560 882.385199 882.133134 881.900212 881.684474 881.483237 881.293220 880.975198 880.668757 880.377497 880.104401 879.851701 879.620785 879.412137 879.225323 879.059005 878.911010 878.778424 878.657722 878.406919 878.168044 877.944633 877.739615 877.555182 877.392698 877.252635 877.134560 877.037148 876.958247 876.894970 876.843827 876.663867 876.496080 876.343976 876.210459 876.097701 876.007044 875.938942 875.892940 875.867697 875.861043 875.870074 875.891285 875.783835 875.688552 875.608923 875.547831 875.507426 875.489029 875.493074 875.519089 875.565715 875.630763 875.711312 875.803841 875.767572 875.743221 875.734253 875.743531 875.773185 875.824517 875.897944 875.992974 876.108232 876.241512 876.389876 876.549783 876.580395 876.622449 876.679397 876.754088 876.848638 876.964335 877.101581 877.259870 877.437808 877.633173 877.843008 878.063753 878.154801 878.256592 878.372537 878.505449 878.657411 878.829680 879.022631 879.235735 879.467582 879.715937 879.977840 880.249730 880.390435 880.541006 880.704910 880.885016 881.083462 881.301559 881.539734 881.797502 882.073488 882.365486 882.670545 882.985107 883.168627 883.361445 883.566948 883.787914 884.026383 884.283565 884.559775 884.854422 885.166026 885.492279 885.830138 886.175960 886.388320 886.608356 886.839462 887.084432 887.345338 887.623427 887.919061 888.231704 888.559931 888.901490 889.253399 889.612069 889.836528 890.067530 890.308483 890.562191 890.830727 891.115334 891.416368 891.733276 892.064617 892.408119 892.760776 893.118976 893.341355 893.569035 893.805423 894.053327 894.314819 894.591145 894.882666 895.188831 895.508205 895.838520 896.176775 896.519365 896.724895 896.934532 897.151692 897.379188 897.619102 897.872685 898.140303 898.421415 898.714587 899.017561 899.327339 899.640321 899.815027 899.992731 900.176859 900.370238 900.574957 900.792281 901.022584 901.265335 901.519111 901.781661 902.050000 902.320535 902.451726 902.584939 902.723615 902.870592 903.027975 903.197042 903.378182 903.570874 903.773711 903.984455 904.200133 904.417168 904.495737 904.575433 904.659614 904.751042 904.851762 904.963003 905.085131 905.217625 905.359101 905.507375 905.659552 905.812162 905.819741 905.828132 905.841187 905.862145 905.893482 905.936803 905.992762 906.061031 906.140306 906.228352 906.322095 906.417741 906.380970 906.344766 906.311596 906.283258 906.260783 906.244370 906.233359 906.226247 906.220731 906.213803 906.201871 906.180908 906.000877 905.811884 905.618010 905.422904 905.229626 905.040531 904.857176 904.680275 904.509683 904.344424 904.182757 904.022275 903.730185 903.440753 903.157825 902.884527 902.623145 902.375035 902.140579 901.919175 901.709274 901.508455 901.313539 901.120732 900.784509 900.450148 900.121168 899.800507 899.490399 899.192272 898.906697 898.633359 898.371077 898.117863 897.871008 897.627213 897.247295 896.870785 896.501300 896.141850 895.794713 895.461338 895.142287 894.837216 894.544895 894.263267 893.989544 893.720340 893.314781 892.914017 892.521669 892.140753 891.773552 891.421521 891.085228 890.764334 890.457616 890.163025 889.877782 889.598507 889.184468 888.776684 888.378773 887.993754 887.623907 887.270690 886.934671 886.615513 886.311996 886.022072 885.742964 885.471296 885.066468 884.669361 884.283592 883.912172 883.557380 883.220666 882.902597 882.602832 882.320148 882.052494 881.797092 881.550561 881.170838 880.800337 880.442755 880.101177 879.777944 879.474555 879.191603 878.928757 878.684777 878.457574 878.244304 878.041502 877.712275 877.393329 877.087917 876.798702 876.527635 876.275884 876.043784 875.830836 875.635733 875.456436 875.290271 875.134067 874.840959 874.559181 874.293240 874.047095 873.824007 873.626412 873.455833 873.312835 873.197013 873.107027 873.040673 872.994995 872.837372 872.700526 872.587505 872.500599 872.441238 872.409911 872.406142 872.428492 872.474614 872.541333 872.624776 872.720525 872.680436 872.651485 872.636932 872.639538 872.661428 872.703993 872.767819 872.852652 872.957409 873.080222 873.218513 873.369114 873.395377 873.434326 873.489512 873.563863 873.659549 873.777891 873.919301 874.083264 874.268360 874.472325 874.692151 874.924220 875.026119 875.140083 875.269572 875.417445 875.585826 875.776016 875.988427 876.222565 876.477050 876.749671 877.037486 877.336946 877.507076 877.688719 877.885326 878.099746 878.334096 878.589663 878.866848 879.165146 879.483160 879.818665 880.168700 880.529699 880.760407 881.001916 881.257671 881.530517 881.822563 882.135091 882.468493 882.822252 883.194961 883.584381 883.987536 884.400843 884.682710 884.974542 885.279785 885.601282 885.941141 886.300640 886.680167 887.079196 887.496313 887.929265 888.375066 888.830116 889.154746 889.488301 889.834097 890.194861 890.572599 890.968507 891.382917 891.815278 892.264178 892.727405 893.202042 893.684595 894.027482 894.378700 894.742206 895.121338 895.518659 895.935839 896.373571 896.831532 897.308386 897.801825 898.308657 898.824924 899.217253 899.617096 900.026563 900.447074 900.879260 901.322914 901.776966 902.239513 902.707870 903.178673 903.648008 904.111572 904.414559 904.711653 905.007094 905.304738 905.607894 905.919189 906.240473 906.572752 906.916169 907.270020 907.632806 908.002327 908.245916 908.497919 908.762261 909.042099 909.339704 909.656369 909.992363 910.346933 910.718333 911.103915 911.500239 911.903234 912.162614 912.428014 912.702925 912.990252 913.292188 913.610114 913.944533 914.295050 914.660386 915.038434 915.426349 915.820674 916.078729 916.343296 916.617993 916.905824 917.209038 917.529032 917.866291 918.220362 918.589879 918.972619 919.365603 919.765224 920.025749 920.292886 920.570270 920.860913 921.167074 921.490153 921.830633 922.188059 922.561055 922.947386 923.344056 923.747440 924.011181 924.281604 924.562353 924.856451 925.166159 925.492880 925.837094 926.198338 926.575227 926.965509 927.366170 927.773565 928.040727 928.314576 928.598767 928.896329 929.209525 929.539756 929.887497 930.252278 930.632697 931.026489 931.430618 931.841418 932.108926 932.383170 932.667948 932.966417 933.280952 933.613035 933.963190 934.330958 934.714913 935.112723 935.521246 935.936670 936.216254 936.502009 936.797079 937.103994 937.424553 937.759747 938.109716 938.473751 938.850328 939.237189 939.631450 940.029747 940.273546 940.523060 940.783372 941.059023 941.353828 941.670733 942.011707 942.377677 942.768506 943.183013 943.619038 944.073547 944.409312 944.763358 945.138572 945.536974 945.959605 946.406465 946.876488 947.367565 947.876603 948.399637 948.931969 949.468351 949.847572 950.228759 950.615151 951.009509 951.413964 951.829912 952.257929 952.697732 953.148182 953.607319 954.072446 954.540237 954.866906 955.196583 955.532983 955.879145 956.237298 956.608755 956.993853 957.391934 957.801370 958.219628 958.643377 959.068633 959.342877 959.618210 959.898231 960.185904 960.483413 960.792066 961.112229 961.443306 961.783756 962.131159 962.482317 962.833388 963.034297 963.234856 963.438676 963.648733 963.867220 964.095458 964.333822 964.581727 964.837644 965.099165 965.363104 965.625633 965.736696 965.846128 965.957555 966.073967 966.197575 966.329712 966.470771 966.620184 966.776439 966.937149 967.099146 967.258626 967.265659 967.270008 967.275318 967.284597 967.300075 967.323106 967.354103 967.392521 967.436873 967.484796 967.533152 967.578165 967.473934 967.366058 967.257985 967.152543 967.051814 966.957039 966.868571 966.785852 966.707443 966.631091 966.553827 966.472101 966.228058 965.980557 965.734103 965.492542 965.258884 965.035168 964.822367 964.620331 964.427786 964.242366 964.060702 963.878543 963.562595 963.243397 962.922417 962.600349 962.277038 961.951454 961.621695 961.285042 960.938042 960.576639 960.196332 959.792358 959.197544 958.579336 957.942696 957.292321 956.632458 955.966749 955.298103 954.628617 953.959519 953.291169 952.623086 951.954024 951.154652 950.357597 949.567283 948.787255 948.020050 947.267124 946.528807 945.804322 945.091831 944.388538 943.690824 942.994421 942.142584 941.291572 940.445076 939.606210 938.777379 937.960179 937.155337 936.362684 935.581177 934.808945 934.043392 933.281313 932.380049 931.483036 930.594156 929.716657 928.853024 928.004877 927.172912 926.356883 925.555625 924.767113 923.988567 923.216585 922.305086 921.400736 920.507406 919.628335 918.766000 917.922018 917.097083 916.290948 915.502453 914.729579 913.969553 913.218983 912.332342 911.455727 910.592989 909.747347 908.921264 908.116340 907.333258 906.571763 905.830688 905.108010 904.400953 903.706124 902.878508 902.063652 901.265374 900.486869 899.730571 898.998057 898.289990 897.606098 896.945194 896.305243 895.683456 895.076428 894.336097 893.611180 892.905661 892.222882 891.565400 890.934886 890.332054 889.756640 889.207416 888.682250 888.178208 887.691685 887.086337 886.497949 885.929502 885.383380 884.861265 884.364079 883.891953 883.444239 883.019558 882.615881 882.230648 881.860910 881.348351 880.854168 880.384118 879.943464 879.536786 879.167819 878.839330 878.553032 878.309547 878.108402 877.948082 877.826111 877.616109 877.444506 877.313803 877.225540 877.180208 877.177209 877.214851 877.290393 877.400125 877.539497 877.703278 877.885748 877.926247 877.982656 878.057935 878.154658 878.274867 878.419961 878.590606 878.786697 879.007343 879.250898 879.515021 879.796778 879.961405 880.144324 880.349138 880.578784 880.835398 881.120219 881.433530 881.774640 882.141913 882.532832 882.944104 883.371805 883.668705 883.981469 884.313487 884.667537 885.045652 885.449020 885.877927 886.331735 886.808901 887.307037 887.823006 888.353053 888.753579 889.167735 889.598887 890.049784 890.522436 891.018008 891.536762 892.078036 892.640267 893.221042 893.817202 894.424970 894.900635 895.387410 895.888644 896.407073 896.944690 897.502645 898.081188 898.679642 899.296428 899.929121 900.574546 901.228913 901.748360 902.276224 902.815847 903.369962 903.940555 904.528772 905.134858 905.758131 906.397007 907.049054 907.711094 908.379329 908.912781 909.451740 909.999375 910.558263 911.130259 911.716405 912.316877 912.930969 913.557115 914.192949 914.835404 915.480840 915.978224 916.478909 916.986913 917.505625 918.037642 918.584638 919.147280 919.725178 920.316881 920.919920 921.530884 922.145549 922.632153 923.119731 923.609864 924.103409 924.600418 925.100098 925.600800 926.100062 926.594677 927.080803 927.554110 928.009949 928.288762 928.549815 928.797516 929.035958 929.268747 929.498855 929.728514 929.959135 930.191279 930.424652 930.658155 930.889955 930.990437 931.091367 931.196738 931.309728 931.432579 931.566512 931.711690 931.867214 932.031176 932.200742 932.372279 932.541522 932.556263 932.567842 932.579683 932.594643 932.614875 932.641736 932.675718 932.716431 932.762615 932.812191 932.862356 932.909708 932.812929 932.713531 932.615123 932.520699 932.432503 932.351933 932.279480 932.214709 932.156277 932.101997 932.048932 931.993531 931.791331 931.586895 931.383859 931.185242 930.993313 930.809494 930.634302 930.467326 930.307249 930.151908 929.998395 929.843185 929.541963 929.239207 928.938573 928.643101 928.355079 928.075952 927.806257 927.545604 927.292699 927.045403 926.800831 926.555486 926.165272 925.774499 925.386840 925.005348 924.632328 924.269239 923.916635 923.574144 923.240493 922.913562 922.590489 922.267797 921.801141 921.335154 920.873548 920.419412 919.975087 919.542062 919.120914 918.711292 918.311933 917.920726 917.534805 917.150688 916.626140 916.103538 915.586448 915.077822 914.579873 914.093986 913.620662 913.159504 912.709242 912.267797 911.832384 911.399643 910.824279 910.252298 909.687696 909.133877 908.593509 908.068418 907.559522 907.066800 906.589305 906.125212 905.671912 905.226135 904.647972 904.077622 903.518569 902.973635 902.444850 901.933368 901.439415 900.962283 900.500361 900.051200 899.611628 899.177886 898.605181 898.038172 897.480411 896.934877 896.403839 895.888764 895.390248 894.908002 894.440859 893.986837 893.543224 893.106712 892.537044 891.974883 891.423869 890.887025 890.366628 889.864110 889.380007 888.913934 888.464610 888.029920 887.607012 887.192429 886.644474 886.105049 885.577745 885.065543 884.570690 884.094601 883.637802 883.199913 882.779666 882.374966 881.982989 881.600309 881.086314 880.581821 880.090394 879.614991 879.157837 878.720328 878.302975 877.905385 877.526281 877.163563 876.814400 876.475366 876.006337 875.547605 875.102704 874.674567 874.265395 873.876564 873.508569 873.161001 872.832573 872.521174 872.223969 871.937525 871.522185 871.117733 870.727674 870.354915 870.001630 869.669176 869.358027 869.067760 868.797075 868.543849 868.305240 868.077808 867.721463 867.376425 867.046218 866.733765 866.441258 866.170061 865.920649 865.692591 865.484568 865.294431 865.119294 864.955667 864.666663 864.388972 864.125853 863.879977 863.653303 863.446998 863.261383 863.095924 862.949260 862.819261 862.703133 862.597546 862.360478 862.134583 861.923794 861.731476 861.560297 861.412106 861.287871 861.187635 861.110529 861.054808 861.017936 860.996704 860.857243 860.733343 860.628122 860.544018 860.482679 860.444882 860.430487 860.438437 860.466791 860.512798 860.573007 860.643410 860.581945 860.529887 860.490452 860.466325 860.459527 860.471320 860.502141 860.551579 860.618388 860.700534 860.795280 860.899308 860.877185 860.864399 860.864320 860.879716 860.912628 860.964277 861.035004 861.124258 861.230611 861.351821 861.484923 861.626364 861.637882 861.657498 861.688524 861.733689 861.795007 861.873686 861.970073 862.083633 862.212967 862.355872 862.509431 862.670144 862.700871 862.738549 862.786485 862.847400 862.923306 863.015409 863.124055 863.248710 863.387980 863.539666 863.700857 863.868060 863.904334 863.946423 863.997632 864.060682 864.137586 864.229555 864.336937 864.459207 864.594975 864.742054 864.897544 865.057961 865.086551 865.119887 865.161280 865.213457 865.278437 865.357437 865.450817 865.558060 865.677791 865.807833 865.945304 866.086734 866.097754 866.112463 866.134052 866.165140 866.207658 866.262756 866.330756 866.411135 866.502542 866.602865 866.709317 866.818561 866.789210 866.763134 866.744140 866.735445 866.739519 866.757980 866.791511 866.839828 866.901677 866.974877 867.056407 867.142518 867.106066 867.072478 867.043795 867.021395 867.005905 866.997152 866.994146 866.995100 866.997491 866.998153 866.993401 866.979187 866.808419 866.628241 866.442739 866.255637 866.070137 865.888800 865.713449 865.545111 865.383998 865.229521 865.080344 864.934469 864.666685 864.404022 864.150263 863.908463 863.680835 863.468667 863.272280 863.091027 862.923330 862.766757 862.618136 862.473702 862.191966 861.914034 861.643271 861.382493 861.133843 860.898699 860.677621 860.470321 860.275686 860.091827 859.916168 859.745564 859.446439 859.152731 858.867930 858.594943 858.335971 858.092416 857.864824 857.652870 857.455370 857.270347 857.095117 856.926416 856.628315 856.337006 856.055986 855.788170 855.535769 855.300191 855.081990 854.880845 854.695578 854.524217 854.364079 854.211905 853.931700 853.659725 853.399481 853.153891 852.925165 852.714715 852.523097 852.349990 852.194216 852.053799 851.926055 851.807721 851.562679 851.327302 851.105095 850.898976 850.711156 850.543046 850.395195 850.267278 850.158112 850.065711 849.987383 849.919852 849.726016 849.543254 849.375111 849.224544 849.093796 848.984296 848.896605 848.830395 848.784466 848.756803 848.744668 848.744727 848.622221 848.511892 848.417058 848.340460 848.284136 848.249344 848.236507 848.245200 848.274180 848.321440 848.384315 848.459601 848.407106 848.367770 848.345551 848.343846 848.365357 848.411980 848.484732 848.583720 848.708143 848.856334 849.025846 849.213562 849.286162 849.377031 849.489375 849.625735 849.787868 849.976668 850.192119 850.433290 850.698369 850.984735 851.289064 851.607472 851.798253 852.002494 852.223508 852.464074 852.726299 853.011529 853.320280 853.652213 854.006147 854.380106 854.771407 855.176777 855.459899 855.757224 856.072211 856.407716 856.765865 857.147954 857.554398 857.984706 858.437503 858.910588 859.401031 859.905297 860.283585 860.675507 861.084471 861.513292 861.964063 862.438061 862.935683 863.456434 863.998937 864.560994 865.139678 865.731463 866.196721 866.674872 867.169316 867.682857 868.217576 868.774731 869.354701 869.956963 870.580113 871.221919 871.879418 872.549043 873.090439 873.643698 874.212213 874.798781 875.405472 876.033529 876.683313 877.354279 878.044993 878.753192 879.475877 880.209443 880.812777 881.426678 882.054539 882.699153 883.362581 884.046055 884.749919 885.473608 886.215664 886.973794 887.744966 888.525538 889.173043 889.829626 890.498713 891.183128 891.884953 892.605434 893.344915 894.102818 894.877662 895.667116 896.468099 897.276906 897.952160 898.634699 899.327799 900.034135 900.755652 901.493474 902.247847 903.018122 903.802781 904.599494 905.405221 906.216341 906.887076 907.563230 908.248554 908.946210 909.658633 910.387415 911.133240 911.895848 912.674041 913.465739 914.268062 915.077454 915.752628 916.434451 917.126163 917.830340 918.548761 919.282325 920.030991 920.793773 921.568767 922.353219 923.143632 923.935909 924.582500 925.230096 925.882036 926.541084 927.209291 927.887895 928.577252 929.276813 929.985138 930.699947 931.418217 932.136302 932.710323 933.283901 933.860510 934.442999 935.033458 935.633119 936.242294 936.860353 937.485745 938.116061 938.748129 939.378152 939.859780 940.338960 940.819162 941.303238 941.793289 942.290563 942.795393 943.307178 943.824401 944.344690 944.864912 945.381315 945.747833 946.110215 946.471959 946.835945 947.204297 947.578288 947.958274 948.343674 948.732990 949.123870 949.513202 949.897249 950.129770 950.356761 950.581751 950.807649 951.036609 951.269931 951.507998 951.750254 951.995231 952.240599 952.483274 952.719547 952.803143 952.880173 952.954198 953.028161 953.104246 953.183784 953.267188 953.353935 953.442586 953.530845 953.615663 953.693366 953.620708 953.540705 953.456784 953.371766 953.287736 953.205954 953.126797 953.049751 952.973425 952.895623 952.813436 952.723381 952.473010 952.215583 951.955358 951.695949 951.440173 951.189915 950.946045 950.708374 950.475653 950.245612 950.015050 949.779958 949.406840 949.027151 948.642823 948.255061 947.864258 947.469948 947.070805 946.664674 946.248644 945.819159 945.372160 944.903259 944.253023 943.581205 942.892435 942.191006 941.480705 940.764671 940.045290 939.324121 938.601865 937.878378 937.152707 936.423185 935.559654 934.694948 933.833293 932.978103 932.131861 931.296033 930.471032 929.656220 928.849952 928.049670 927.252024 926.453037 925.501692 924.548803 923.598035 922.652478 921.714515 920.785731 919.866848 918.957707 918.057284 917.163745 916.274537 915.386516 914.359752 913.334964 912.315964 911.305949 910.307366 909.321823 908.350025 907.391760 906.445918 905.510558 904.582998 903.659955 902.599151 901.543520 900.496866 899.462376 898.442494 897.438826 896.452078 895.482045 894.527629 893.586897 892.657186 891.735231 890.679476 889.632131 888.596980 887.577191 886.575195 885.592586 884.630063 883.687417 882.763549 881.856530 880.963703 880.081810 879.069988 878.069727 877.084781 876.118291 875.172665 874.249475 873.349404 872.472230 871.616842 870.781306 869.962960 869.158542 868.224963 867.306041 866.405655 865.527065 864.672773 863.844425 863.042745 862.267517 861.517597 860.790977 860.084876 859.395877 858.590723 857.802397 857.033952 856.287855 855.565887 854.869076 854.197666 853.551124 852.928183 852.326919 851.744860 851.179125 850.478691 849.797113 849.139706 848.511285 847.915994 847.357159 846.837175 846.357438 845.918316 845.519156 845.158340 844.833374 844.419538 844.041751 843.702652 843.404001 843.146588 842.930184 842.753531 842.614373 842.509530 842.435006 842.386139 842.357780 842.197266 842.055120 841.934349 841.837550 841.766773 841.723416 841.708144 841.720853 841.760662 841.825947 841.914405 842.023159 842.020791 842.039371 842.082420 842.152824 842.252701 842.383311 842.544995 842.737162 842.958314 843.206105 843.477446 843.768637 843.938038 844.126914 844.338604 844.575854 844.840689 845.134319 845.457080 845.808415 846.186890 846.590256 847.015539 847.459169 847.782372 848.123610 848.486194 848.872840 849.285547 849.725495 850.192991 850.687451 851.207410 851.750589 852.313982 852.893985 853.351546 853.825333 854.318637 854.834157 855.373870 855.938937 856.529645 857.145384 857.784669 858.445193 859.123923 859.817226 860.385652 860.968214 861.568192 862.188276 862.830433 863.495813 864.184689 864.896437 865.629552 866.381708 867.149850 867.930321 868.585679 869.252759 869.934700 870.634060 871.352692 872.091654 872.851155 873.630538 874.428300 875.242152 876.069111 876.905629 877.605540 878.315200 879.038445 879.778502 880.537829 881.318000 882.119618 882.942275 883.784548 884.644045 885.517482 886.400805 887.163160 887.933055 888.712324 889.502112 890.302785 891.113881 891.934094 892.761298 893.592612 894.424497 895.252890 896.073364 896.731581 897.381508 898.027310 898.672797 899.321258 899.975328 900.636884 901.306978 901.985811 902.672745 903.366351 904.064496 904.636769 905.215192 905.803596 906.405044 907.021708 907.654779 908.304428 908.969796 909.649041 910.339415 911.037384 911.738785 912.293860 912.851472 913.414999 913.987247 914.570321 915.165523 915.773293 916.393182 917.023865 917.663199 918.308309 918.955716 919.463795 919.974131 920.490269 921.015139 921.550927 922.098975 922.659717 923.232660 923.816400 924.408685 925.006508 925.606242 926.062799 926.521137 926.984837 927.456867 927.939442 928.433929 928.940781 929.459519 929.988750 930.526226 931.068940 931.613261 932.013313 932.414884 932.821593 933.236441 933.661673 934.098677 934.547928 935.008958 935.480382 935.959956 936.444674 936.930900 937.272001 937.614562 937.962238 938.318058 938.684295 939.062359 939.452741 939.854986 940.267714 940.688685 941.114890 941.542691 941.824352 942.107616 942.396192 942.693157 943.000826 943.320641 943.653116 943.997810 944.353348 944.717481 945.087184 945.458795 945.685170 945.913365 946.147010 946.389109 946.641901 946.906768 947.184176 947.473652 947.773810 948.082417 948.396490 948.712435 948.880022 949.049812 949.225772 949.411250 949.608830 949.820224 950.046201 950.286560 950.540143 950.804888 951.077927 951.355713 951.490990 951.631061 951.779552 951.939420 952.112811 952.300970 952.504181 952.721755 952.952055 953.192569 953.440012 953.690474 953.792369 953.897043 954.008202 954.128935 954.261582 954.407623 954.567617 954.741177 954.926985 955.122853 955.325818 955.532278 955.593095 955.657574 955.729509 955.812048 955.907550 956.017490 956.142389 956.281798 956.434317 956.597659 956.768751 956.943874 956.972114 957.004432 957.044609 957.095788 957.160325 957.239696 957.334427 957.444076 957.567251 957.701677 957.844295 957.991397 957.992160 957.997476 958.011135 958.036282 958.075279 958.129599 958.199768 958.285341 958.384921 958.496224 958.616182 958.741081 958.719817 958.703559 958.696099 958.700584 958.719376 958.753948 958.804821 958.871546 958.952721 959.046053 959.148465 959.256231 959.218023 959.185229 959.161642 959.150410 959.153892 959.173559 959.209929 959.262544 959.329997 959.