New loadshape.LS_PhaseA npts=1440 sinterval=60 pmult=(1033.431396 1037.204010 1040.833010 1044.267741 1047.468535 1050.407193 1053.067092 1055.442934 1057.540150 1059.373998 1060.968384 1062.058392 1063.000041 1063.858105 1064.696400 1065.574361 1066.543847 1067.646297 1068.910346 1070.349989 1071.963379 1073.965283 1076.069212 1078.206782 1080.298494 1082.257199 1083.991963 1085.412204 1086.431941 1086.973975 1086.973877 1085.577880 1083.631450 1081.192230 1078.332319 1075.135031 1071.691372 1068.096394 1064.445569 1060.831316 1057.339844 1054.844543 1052.549539 1050.444097 1048.512431 1046.737502 1045.104900 1043.606586 1042.244299 1041.032423 1040.000122 1037.206293 1034.863812 1033.209093 1032.470131 1032.853262 1034.530356 1037.627013 1042.212270 1048.290326 1055.794678 1067.250803 1079.555645 1092.210575 1104.682075 1116.424675 1126.904756 1135.624297 1142.143660 1146.102512 1147.238037 1141.688183 1133.453160 1122.930548 1110.605809 1097.029490 1082.792162 1068.498070 1054.738515 1042.065974 1030.969971 1024.863041 1020.778958 1018.665270 1018.379212 1019.698774 1022.336721 1025.956928 1030.192383 1034.664086 1039.000122 1040.709599 1041.824479 1042.268352 1042.009665 1041.060718 1039.474955 1037.342725 1034.785706 1031.950263 1029.000000 1025.901604 1023.043180 1020.610367 1018.773335 1017.678409 1017.440661 1018.137779 1019.805462 1022.434556 1025.970093 1032.406537 1039.339348 1046.420845 1053.295599 1059.619758 1065.080209 1069.412774 1072.418653 1073.978362 1074.062500 1067.865430 1060.834624 1053.627191 1046.938567 1041.466942 1037.877071 1036.764929 1038.624675 1043.819304 1052.556274 1071.346588 1093.014618 1116.701772 1141.437659 1166.185386 1189.889796 1211.526746 1230.151455 1244.944001 1255.250122 1252.429823 1245.138110 1234.045189 1219.980252 1203.887353 1186.777050 1169.675821 1153.575311 1139.383500 1127.879761 1127.794788 1130.725685 1136.214593 1143.660523 1152.357355 1161.536243 1170.410577 1178.221576 1184.282564 1188.020020 1180.894321 1171.472590 1160.355815 1148.264620 1136.001333 1124.408343 1114.324491 1106.541318 1101.760962 1100.557495 1110.129236 1123.327999 1139.629314 1158.368116 1178.771312 1199.994570 1221.161824 1241.405929 1259.908819 1275.939575 1282.768321 1286.585906 1287.595388 1286.119605 1282.578687 1277.464036 1271.309944 1264.664061 1258.057973 1251.979126 1251.479110 1251.848930 1252.936958 1254.523736 1256.338678 1258.079239 1259.431638 1260.092215 1259.788451 1258.298706 1251.483479 1243.604735 1235.002882 1226.072487 1217.244263 1208.965298 1201.678334 1195.800900 1191.705131 1189.699097 1192.072991 1196.713385 1203.487082 1212.175576 1222.483388 1234.049148 1246.459039 1259.262129 1271.987059 1284.159546 1294.836743 1304.126279 1311.685489 1317.227922 1320.534111 1321.460368 1319.945305 1316.013834 1309.778458 1301.437744 1289.222762 1275.703829 1261.465823 1247.124080 1233.299381 1220.592682 1209.560492 1200.691809 1194.387439 1190.942505 1192.865618 1197.670275 1205.084796 1214.731794 1226.145561 1238.792646 1252.094864 1265.453898 1278.276604 1290.000122 1298.580096 1305.262388 1309.830545 1312.160462 1312.224849 1310.094523 1305.936480 1300.008811 1292.652596 1284.281006 1273.787715 1263.387166 1253.749323 1245.535884 1239.372789 1235.823685 1235.365305 1238.365675 1245.065955 1255.566650 1273.334660 1294.359411 1318.005885 1343.534861 1370.134256 1396.953050 1423.136504 1447.861356 1470.369662 1490.000000 1500.959863 1508.560493 1512.993425 1514.563981 1513.668111 1510.766178 1506.354860 1500.938395 1495.000390 1488.977417 1488.443712 1488.021767 1487.466885 1486.479130 1484.725894 1481.866470 1477.577489 1471.578045 1463.653350 1453.675781 1435.567177 1415.992709 1395.655310 1375.316144 1355.759772 1337.757824 1322.032651 1309.222422 1299.849121 1294.290771 1298.586577 1306.440500 1317.226473 1330.193175 1344.500563 1359.259872 1373.575504 1386.587171 1397.510629 1405.675415 1404.856760 1400.900303 1394.105116 1384.911602 1373.876983 1361.646457 1348.921227 1336.424675 1324.868013 1314.916748 1310.321812 1308.120290 1308.416972 1311.207329 1316.380611 1323.726902 1332.947776 1343.670106 1355.462488 1367.853638 1379.434677 1390.723289 1401.318806 1410.847791 1418.977746 1425.429551 1429.988244 1432.511771 1432.937393 1431.285522 1425.873097 1418.821171 1410.538671 1401.485570 1392.153639 1383.046162 1374.657344 1367.452162 1361.847387 1358.194458 1358.597693 1361.245464 1366.072095 1372.928931 1381.593071 1391.778672 1403.150375 1415.338301 1427.954062 1440.607178 1451.365527 1461.577226 1471.061748 1479.675650 1487.314836 1493.915427 1499.453276 1503.942219 1507.431159 1510.000122 1511.552815 1512.430788 1512.793476 1512.807472 1512.638971 1512.446430 1512.373706 1512.543899 1513.054134 1513.971436 1515.546860 1517.544054 1519.910869 1522.564487 1525.395226 1528.271478 1531.045604 1533.560576 1535.657146 1537.181274 1537.907429 1537.811110 1536.802681 1534.823035 1531.848265 1527.893264 1523.014095 1517.308976 1510.917784 1504.020020 1494.849333 1485.795183 1477.288190 1469.754095 1463.594496 1459.168138 1456.773504 1456.633395 1458.882124 1463.555908 1473.484761 1485.353983 1498.653461 1512.807789 1527.201541 1541.206220 1554.207875 1565.634316 1574.980900 1581.833862 1581.911446 1579.357057 1574.449219 1567.564172 1559.155778 1549.732723 1539.833945 1530.003278 1520.764293 1512.596313 1508.828674 1506.619172 1505.964177 1506.782793 1508.925120 1512.183172 1516.303939 1521.004015 1525.985148 1530.950073 1533.223365 1535.159977 1536.743385 1537.983307 1538.911988 1539.579497 1540.048322 1540.387509 1540.666661 1540.950073 1542.140155 1543.349924 1544.531032 1545.623127 1546.556430 1547.254917 1547.639981 1547.634423 1547.166600 1546.174561 1543.925276 1541.133441 1537.842239 1534.109280 1530.004809 1525.609582 1521.012477 1516.307902 1511.593088 1506.965332 1502.165634 1497.665326 1493.574575 1489.989777 1486.989736 1484.632415 1482.952381 1481.959046 1481.635759 1481.939819 1482.987197 1484.488853 1486.318110 1488.333077 1490.381820 1492.307980 1493.956649 1495.180288 1495.844488 1495.833374 1494.398933 1492.189544 1489.222697 1485.540937 1481.209650 1476.314179 1470.956366 1465.250654 1459.319863 1453.290771 1446.972357 1440.827843 1434.995381 1429.596953 1424.733252 1420.479316 1416.881068 1413.952898 1411.676367 1410.000122 1409.036895 1408.462973 1408.123849 1407.845603 1407.441431 1406.718812 1405.487076 1403.565128 1400.789063 1397.019409 1391.659201 1385.170563 1377.561530 1368.878895 1359.207848 1348.670502 1337.423338 1325.653626 1313.574886 1301.421509 1288.470258 1276.028521 1264.433219 1254.004632 1245.033902 1237.771389 1232.416268 1229.107797 1227.918557 1228.849976 1233.401482 1239.728118 1247.489947 1256.300793 1265.744671 1275.393307 1284.824097 1293.637825 1301.475466 1308.033447 1310.524434 1311.563624 1311.284874 1309.883206 1307.602307 1304.720325 1301.534548 1298.345581 1295.441662 1293.083740 1293.082563 1293.874766 1295.439956 1297.707927 1300.562878 1303.849504 1307.380703 1310.946569 1314.324307 1317.288696 1318.800462 1319.560828 1319.463260 1318.427417 1316.402491 1313.369598 1309.343151 1304.371159 1298.534415 1291.944580 1283.601499 1274.899543 1266.113407 1257.519052 1249.381421 1241.942517 1235.410302 1229.948861 1225.670219 1222.628174 1222.720202 1223.810214 1225.611130 1227.798469 1230.026519 1231.945470 1233.218833 1233.540455 1232.650447 1230.349365 1223.536563 1215.393143 1206.197567 1196.283675 1186.024075 1175.812052 1166.042711 1157.094125 1149.309216 1142.979126 1140.839834 1140.310785 1141.252223 1143.461688 1146.685488 1150.632146 1154.987255 1159.429117 1163.644535 1167.344116 1167.908473 1167.711306 1166.800426 1165.264452 1163.225716 1160.831865 1158.246533 1155.639491 1153.176690 1151.010620 1150.314267 1150.051375 1150.202859 1150.720717 1151.530272 1152.533579 1153.613853 1154.640740 1155.476228 1155.980957 1155.574571 1154.623725 1153.057757 1150.823228 1147.886579 1144.236238 1139.884065 1134.866101 1129.242542 1123.096924 1115.775212 1108.223856 1100.644636 1093.243332 1086.221373 1079.767545 1074.050088 1069.209432 1065.351878 1062.544434 1061.375164 1061.209831 1061.936160 1063.403489 1065.428363 1067.801326 1070.294677 1072.670940 1074.691743 1076.126831 1076.355952 1075.637478 1073.847739 1070.897189 1066.733835 1061.345606 1054.761546 1047.051812 1038.326421 1028.732788 1017.595968 1006.051602 994.402159 982.957519 972.023210 961.888744 952.816488 945.031438 938.712273 933.984009 931.817742 931.234600 932.102011 934.235175 937.405112 941.348249 945.777193 950.392309 954.893689 958.993103 961.552593 963.293024 964.095089 963.879999 962.611296 960.295339 956.980465 952.754879 947.743343 942.102783 935.660942 929.004758 922.381751 916.042671 910.232151 905.179581 901.090507 898.138827 896.460055 896.145874 897.742646 900.699505 904.919126 910.260093 916.542296 923.553604 931.057575 938.801942 946.527583 953.977661 960.286183 965.904382 970.683132 974.500365 977.263745 978.912456 979.418081 978.784573 977.047320 974.271362 970.165937 965.259439 959.718795 953.722442 947.453480 941.092827 934.812612 928.770051 923.101987 917.920288 913.844611 910.346312 907.402380 904.963489 902.958023 901.296899 899.879008 898.597024 897.343364 896.016052 893.626333 891.075444 888.380347 885.571221 882.689224 879.783803 876.909679 874.123652 871.481358 869.034119 867.051969 865.321933 863.848836 862.626929 861.640021 860.862065 860.258190 859.786134 859.398030 859.042480 858.467110 857.838658 857.124907 856.297187 855.331692 854.210740 852.923929 851.469161 849.853471 848.093628 846.011743 843.867707 841.724519 839.651981 837.724747 836.020194 834.616186 833.588774 833.009896 832.945129 833.095709 833.892990 835.400048 837.662374 840.704806 844.529034 849.111808 854.403914 860.330004 866.789307 873.856330 881.169453 888.548788 895.802745 902.733815 909.144739 914.844896 919.656684 923.421723 926.006653 927.126445 926.913322 925.350827 922.460583 918.302765 912.975510 906.613232 899.383873 891.485107 883.139587 873.449825 863.901741 854.848433 846.629438 839.557099 833.903688 829.889782 827.674332 827.346815 828.921814 834.469761 841.540008 849.746043 858.656240 867.813532 876.756059 885.037986 892.249685 898.036502 902.115356 900.770513 897.715398 893.231510 887.665282 881.408217 874.875348 868.482937 862.626337 857.658944 853.873108 855.168997 857.671429 861.112249 865.161974 869.448765 873.579351 877.160990 879.823565 881.240856 881.150085 875.609318 868.614234 860.479474 851.585317 842.359274 833.255692 824.734203 817.237850 811.171785 806.883362 807.118584 809.367351 813.513695 819.362007 826.646420 835.042760 844.182593 853.668826 863.092285 872.048645 878.906594 884.684186 889.185482 892.263220 893.822848 893.824848 892.285310 889.274758 884.915277 879.376038 872.162123 864.276420 856.046585 847.809809 839.899338 832.631184 826.291496 821.125046 817.325234 815.026001 815.748737 817.918828 821.349950 825.804082 831.003372 836.643423 842.407502 847.981104 853.066330 857.395508 858.877320 859.367860 858.905180 857.573247 855.495778 852.828632 849.751103 846.456462 843.142159 840.000061 837.996642 836.423281 835.340689 834.782421 834.754279 835.234860 836.177190 837.511382 839.148202 840.983398 842.864151 844.718022 846.428891 847.885980 848.989293 849.654759 849.818893 849.442783 848.515235 847.054932 844.002623 840.639726 837.165041 833.791919 830.738773 828.219309 826.432841 825.555063 825.729637 827.060913 830.544523 835.172545 840.828782 847.355929 854.561950 862.227732 870.115755 877.979432 885.572822 892.660339 898.280223 903.058501 906.902638 909.753688 911.587640 912.415705 912.283548 911.269496 909.481784 907.054932 903.849937 900.357469 896.786374 893.348058 890.248815 887.682335 885.822620 884.817562 884.783371 885.800049 888.075059 891.424881 895.793191 901.084371 907.166522 913.875698 921.021231 928.391991 935.763387 942.904907 949.596277 955.613570 960.754103 964.839601 967.723050 969.294736 969.487245 968.279245 965.697896 961.819763 955.617445 948.510208 940.805242 932.834427 924.941597 917.469403 910.746238 905.073694 900.714975 897.884705 897.786810 899.378237 902.602502 907.346137 913.444833 920.691314 928.844615 937.640434 946.802169 956.052246 964.470089 972.524026 980.049292 986.912143 993.013805 998.293201 1002.728369 1006.336549 1009.172917 1011.328003 1011.692417 1011.743276 1011.749804 1011.982240 1012.697917 1014.127807 1016.464063 1019.849073 1024.366475 1030.034546 1039.069425 1048.893430 1059.135100 1069.384891 1079.214791 1088.198994 1095.934794 1102.062894 1106.286309 1108.387085 1105.046446 1099.709400 1092.718320 1084.490736 1075.500728 1066.258213 1057.286936 1049.101989 1042.187711 1036.976807 1036.112904 1037.389697 1040.802416 1046.264616 1053.614694 1062.624980 1073.013017 1084.454568 1096.597819 1109.078247 1119.895311 1130.486718 1140.666907 1150.273300 1159.168411 1167.241036 1174.406588 1180.606644 1185.807808 1190.000000 1193.587313 1196.169892 1197.762787 1198.399213 1198.129686 1197.020955 1195.154737 1192.626258 1189.542620 1186.020996 1181.835200 1177.498638 1173.174256 1169.022307 1165.196167 1161.838350 1159.076850 1157.021887 1155.763144 1155.367554 1155.559847 1156.700923 1158.808030 1161.869694 1165.845041 1170.663960 1176.228128 1182.412902 1189.070044 1196.031250 1203.345381 1210.566177 1217.473976 1223.851634 1229.491702 1234.203483 1237.819758 1240.202926 1241.250387 1240.898926 1237.858217 1233.527215 1228.077199 1221.709863 1214.648512 1207.128783 1199.389272 1191.662407 1184.165936 1177.095337 1172.680479 1168.821760 1165.449556 1162.478287 1159.817250 1157.381666 1155.103384 1152.940697 1150.886714 1148.975830 1142.883960 1137.508367 1133.374828 1131.001710 1130.870197 1133.395037 1138.897093 1147.578893 1159.504308 1174.583374 1198.602940 1224.596684 1251.501093 1278.170500 1303.426401 1326.108839 1345.127895 1359.513287 1368.460166 1371.369263 1360.338236 1343.454576 1321.498648 1295.445667 1266.420456 1235.646998 1204.394777 1173.923951 1145.431440 1120.000000 1104.970596 1094.090720 1087.342373 1084.529272 1085.297255 1089.160370 1095.531443 1103.755790 1113.146649 1123.020874 1127.944617 1132.553172 1136.749022 1140.499526 1143.830516 1146.817205 1149.572935 1152.236356 1154.957696 1157.884766 1163.157843 1168.690266 1174.387821 1180.132448 1185.785778 1191.193863 1196.192911 1200.615796 1204.299091 1207.090332 1208.222651 1208.279722 1207.232769 1205.081566 1201.855742 1197.615315 1192.450436 1186.480291 1179.851160 1172.733643 1164.296956 1155.854176 1147.706961 1140.151853 1133.468990 1127.911269 1123.694343 1120.987840 1119.908111 1120.512817 1124.158171 1129.302410 1135.706792 1143.089115 1151.136402 1159.518660 1167.903201 1175.968977 1183.420381 1190.000000 1193.351336 1195.656974 1197.004379 1197.526258 1197.391110 1196.792524 1195.937675 1195.035508 1194.285111 1193.864746 1195.238730 1197.082456 1199.354877 1201.980770 1204.855256 1207.849696 1210.818709 1213.608035 1216.062909 1218.036621 1218.842589 1218.985752 1218.434438 1217.186919 1215.273426 1212.757070 1209.733625 1206.330102 1202.702127 1199.030151 1193.967121 1189.399095 1185.672835 1183.118407 1182.033104 1182.666204 1185.205165 1189.763841 1196.373215 1204.975098 1218.069194 1232.542585 1247.853182 1263.408584 1278.590932 1292.782995 1305.394503 1315.887726 1323.801337 1328.771606 1326.559375 1321.375150 1313.555444 1303.532449 1291.811830 1278.948071 1265.518383 1252.096190 1239.225263 1227.395508 1220.489635 1215.060459 1211.045202 1208.304210 1206.634168 1205.783915 1205.472108 1205.405988 1205.300395 1204.896240 1200.925861 1196.549692 1191.922671 1187.243510 1182.744731 1178.681109 1175.317003 1172.913117 1171.713224 1171.931396 1175.188733 1180.028526 1186.397409 1194.193357 1203.269332 1213.438483 1224.480687 1236.150183 1248.184023 1260.311035 1271.300654 1281.938292 1292.058029 1301.508851 1310.156779 1317.886538 1324.602791 1330.230929 1334.717465 1338.030029 1340.177660 1341.145429 1340.959527 1339.664458 1337.321695 1334.008128 1329.814346 1324.842777 1319.205723 1313.023315 1306.025769 1298.771628 1291.423436 1284.138616 1277.065378 1270.338992 1264.078519 1258.384113 1253.334939 1248.987793 1245.352402 1242.465800 1240.318387 1238.879481 1238.099278 1237.911388 1238.235849 1238.982540 1240.054853 1241.353516 1242.268038 1243.261186 1244.289160 1245.313956 1246.303479 1247.231510 1248.077564 1248.826660 1249.469061 1250.000000 1250.565968 1251.012684 1251.337115 1251.542033 1251.636704 1251.637511 1251.568461 1251.461527 1251.356778 1251.302246 1250.754643 1250.426605 1250.433822 1250.889295 1251.898503 1253.554699 1255.934506 1259.093968 1263.065180 1267.853638 1273.347109 1279.588616 1286.503872 1293.989345 1301.913640 1310.119854 1318.428854 1326.643410 1334.553095 1341.939819 1348.778772 1354.647012 1359.324495 1362.610613 1364.331579 1364.347294 1362.557439 1358.906578 1353.388053 1346.046509 1335.575098 1323.643015 1310.561027 1296.669913 1282.327751 1267.896773 1253.730253 1240.159904 1227.484231 ) qmult=(303.006653 301.503805 299.711595 297.721489 295.635629 293.562049 291.609621 289.882935 288.477302 287.474089 286.936562 287.555460 288.643222 290.139732 291.965750 294.026572 296.216269 298.422342 300.530619 302.430207 304.018311 304.709027 304.968364 304.782066 304.152714 303.099058 301.654826 299.867052 297.794001 295.502774 293.066673 290.772456 288.468494 286.213528 284.064130 282.073351 280.289499 278.755067 277.505826 276.570109 275.968277 275.518232 275.433905 275.726062 276.395135 277.430628 278.810821 280.502811 282.462896 284.637324 286.963394 289.752425 292.516037 295.143817 297.528054 299.568183 301.175078 302.275003 302.813100 302.756247 302.095169 300.071236 297.564903 294.704475 291.632955 288.501560 285.462927 282.664273 280.240767 278.309370 276.963394 277.253990 278.144965 279.557391 281.388982 283.519700 285.818029 288.147642 290.374192 292.371965 294.030106 294.204580 293.974242 293.386286 292.506776 291.416327 290.205191 288.967981 287.798241 286.783118 285.998337 286.373020 287.002710 287.835920 288.806857 289.839039 290.849400 291.752704 292.466087 292.913524 293.030060 292.123715 290.860623 289.280169 287.436363 285.395352 283.232463 281.028903 278.868236 276.832771 275.000000 273.726995 272.757880 272.114161 271.804825 271.826211 272.162314 272.785489 273.657543 274.731152 275.951584 277.222651 278.521048 279.784728 280.952187 281.964543 282.767550 283.313484 283.562842 283.485811 283.063438 282.164429 280.928389 279.382475 277.564459 275.521435 273.308244 270.985673 268.618488 266.273346 264.016670 261.945494 260.083080 258.480378 257.180857 256.219198 255.620246 255.398244 255.556375 256.086620 256.969948 258.215911 259.743271 261.500971 263.431086 265.470619 267.553439 269.612320 271.581021 273.396324 275.000000 276.315453 277.327778 278.005558 278.327802 278.284591 277.877400 277.119078 276.033502 274.654881 273.026756 270.935575 268.725540 266.480824 264.285509 262.220101 260.358163 258.763197 257.485897 256.561871 256.009933 256.416477 257.130290 258.069169 259.140543 260.246275 261.287687 262.170604 262.810226 263.135622 263.093651 261.798975 260.168393 258.285885 256.250726 254.172349 252.164788 250.340896 248.806600 247.655407 246.963398 247.610973 248.729932 250.256080 252.105862 254.180437 256.370367 258.560694 260.636241 262.486910 264.012772 264.531083 264.626239 264.301707 263.578635 262.494373 261.100412 259.459845 257.644425 255.731371 253.800003 252.083661 250.485147 249.058351 247.848841 246.892232 246.212908 245.823143 245.722649 245.898562 246.325882 247.213566 248.250963 249.363559 250.473035 251.500831 252.371739 253.017390 253.379502 253.412767 253.087250 251.877139 250.344581 248.555004 246.586529 244.526288 242.466388 240.499680 238.715498 237.195522 236.009933 235.689777 235.755421 236.186714 236.947767 237.988785 239.248393 240.656367 242.136649 243.610550 245.000004 245.928405 246.657775 247.154129 247.391773 247.353702 247.031720 246.426283 245.546086 244.407421 243.033337 241.527971 239.842266 238.007224 236.056991 234.027960 231.957855 229.884805 227.846441 225.879030 224.016670 222.274139 220.696950 219.310036 218.133679 217.183139 216.468425 215.994209 215.759878 215.759738 215.983335 216.432889 217.071769 217.876942 218.823137 219.883712 221.031538 222.239868 223.483181 224.737951 225.983334 227.170863 228.320441 229.424606 230.479668 231.485560 232.445555 233.365860 234.255103 235.123732 235.983334 236.725739 237.492112 238.302789 239.175032 240.121698 241.150061 242.260836 243.447459 244.695656 245.983334 247.575366 249.116226 250.539440 251.776917 252.762011 253.432618 253.734205 253.622626 253.066638 252.050003 250.177323 247.896270 245.274341 242.392198 239.340700 236.217566 233.123789 230.159932 227.422427 225.000004 223.241205 221.914823 221.046859 220.648259 220.714970 221.228465 222.156684 223.455377 225.069778 226.936565 228.915480 231.010410 233.151322 235.267944 237.291768 239.157985 240.807283 242.187480 243.254934 243.975697 244.249537 244.147390 243.674492 242.846472 241.688526 240.234334 238.524759 236.606369 234.529834 232.348244 230.167962 227.984390 225.843716 223.788755 221.857891 220.084173 218.494596 217.109561 215.942551 215.000002 214.256627 213.732260 213.415400 213.288655 213.329404 213.510615 213.801779 214.169949 214.580846 215.000002 215.459000 215.856468 216.158822 216.337265 216.369003 216.238289 215.937226 215.466325 214.834774 214.060404 212.904559 211.687405 210.470747 209.318980 208.296232 207.463495 206.875841 206.579847 206.611309 206.993357 208.177026 209.677293 211.437530 213.391050 215.464256 217.580044 219.661331 221.634560 223.433041 225.000004 225.753204 226.247206 226.511550 226.586628 226.521082 226.368874 226.186165 226.028130 225.945838 225.983337 226.625314 227.404973 228.295768 229.261917 230.260259 231.242425 232.157247 232.953296 233.581462 233.997452 233.864019 233.479902 232.851870 231.995380 230.933927 229.698112 228.324482 226.854176 225.331438 223.802040 222.403367 221.079032 219.862805 218.785112 217.872281 217.145904 216.622361 216.312493 216.221448 216.348686 216.741406 217.331115 218.097522 219.016771 220.062448 221.206639 222.421009 223.677851 224.951078 226.217110 227.251553 228.258949 229.243591 230.212080 231.172317 232.132436 233.099755 234.079768 235.075252 236.085529 237.421484 238.732085 239.978636 241.121753 242.123429 242.949119 243.569759 243.963618 244.117914 244.030106 243.262031 242.318437 241.266888 240.181022 239.137270 238.211433 237.475254 236.993092 236.818866 236.993355 237.933198 239.221511 240.817691 242.667430 244.705101 246.856569 249.042324 251.180809 253.191842 255.000000 256.374262 257.437327 258.158882 258.522103 258.524448 258.177967 257.509147 256.558268 255.378294 254.033333 252.357463 250.688618 249.130810 247.787136 246.755567 246.124854 245.970691 246.352279 247.309416 248.860237 251.454242 254.569394 258.116641 261.989315 266.067313 270.221760 274.319973 278.230570 281.828524 285.000000 287.275068 288.979998 290.088189 290.593717 290.511015 289.873902 288.734013 287.158663 285.228263 283.033333 280.620023 278.142348 275.705541 273.411005 271.352622 269.613340 268.262116 267.351354 266.914897 266.966675 267.878374 269.213211 270.893936 272.829289 274.918175 277.054178 279.130259 281.043457 282.699432 284.016670 284.483820 284.540899 284.199985 283.491425 282.462214 281.173784 279.699297 278.120537 276.524530 275.000000 273.745730 272.719550 271.985805 271.598817 271.600837 272.020379 272.871017 274.150665 275.841381 277.909698 280.541815 283.423435 286.462681 289.560945 292.616759 295.529783 298.204774 300.555395 302.507722 304.003326 304.544575 304.607207 304.228356 303.461471 302.373614 301.042307 299.552053 297.990665 296.445539 295.000008 294.059259 293.329951 292.838091 292.598289 292.613912 292.877633 293.372359 294.072481 294.945387 295.953186 296.878337 297.870164 298.900124 299.939776 300.961625 301.939903 302.851288 303.675528 304.395974 305.000008 305.513930 305.896351 306.145364 306.264004 306.260245 306.146850 305.941087 305.664304 305.341370 305.000008 304.559142 304.169592 303.871591 303.703486 303.700164 303.891564 304.301332 304.945655 305.832337 306.960136 308.428862 310.098484 311.930934 313.880851 315.897070 317.924313 319.905043 321.781414 323.497249 325.000000 326.156829 327.021628 327.569919 327.786080 327.663879 327.206737 326.427732 325.349329 324.002845 322.427658 320.541623 318.535592 316.476660 314.433450 312.473778 310.662349 309.058555 307.714462 306.673034 305.966675 305.846439 306.071106 306.617952 307.454339 308.539498 309.826545 311.264685 312.801484 314.385142 315.966675 317.133513 318.247752 319.309275 320.322904 321.297206 322.243141 323.172636 324.097154 325.026317 325.966675 327.287133 328.587540 329.830786 330.978364 331.992399 332.837741 333.484039 333.907687 334.093575 334.036545 333.313415 332.407563 331.382750 330.309472 329.261982 328.315145 327.541227 327.006756 326.769552 326.876053 327.657497 328.806550 330.300180 332.101538 334.161455 336.420362 338.810556 341.258743 343.688747 346.024323 348.036058 349.826214 351.346771 352.557886 353.429024 353.939794 354.080501 353.852369 353.267454 352.348236 350.970333 349.343386 347.528533 345.591313 343.599169 341.618940 339.714403 337.943964 336.358585 335.000000 334.218096 333.686969 333.388361 333.295316 333.374233 333.587128 333.894046 334.255477 334.634710 335.000000 334.834864 334.656173 334.496219 334.391879 334.382253 334.506150 334.799546 335.293103 336.009893 336.963394 338.624791 340.474983 342.453576 344.492543 346.519136 348.459040 350.239624 351.793185 353.060030 353.991302 354.059649 353.778814 353.184172 352.322776 351.250953 350.031580 348.731161 347.416810 346.153259 345.000015 344.325802 343.827321 343.509172 343.366494 343.385778 343.546024 343.820170 344.176738 344.581635 345.000015 345.188152 345.344026 345.457935 345.523641 345.538515 345.503533 345.423146 345.305021 345.159676 345.000015 344.851551 344.718129 344.615626 344.560091 344.567147 344.651401 344.825887 345.101557 345.486835 345.987244 346.565564 347.263509 348.079811 349.009354 350.043094 351.168102 352.367746 353.622000 354.907884 356.200012 357.508296 358.764798 359.938178 360.998143 361.916529 362.668355 363.232812 363.594151 363.742433 363.674118 363.265955 362.665563 361.900201 361.002345 360.008551 358.958186 357.892071 356.851087 355.874777 355.000000 354.189700 353.546555 353.098144 352.864575 352.857536 353.079616 353.523947 354.174172 355.004769 355.981705 357.369426 358.789707 360.165483 361.420195 362.481427 363.284446 363.775527 363.914901 363.679225 363.063446 361.433413 359.526464 357.448366 355.315952 353.251819 351.378754 349.814095 348.664259 348.019628 347.950012 349.119383 350.873781 353.153086 355.874472 358.935927 362.220458 365.600850 368.944771 372.120062 375.000015 377.049524 378.624237 379.675540 380.172559 380.102742 379.471868 378.303503 376.637922 374.530558 372.050018 369.275980 366.294303 363.198326 360.084057 357.047142 354.179868 351.568305 349.289652 347.409872 345.981705 345.148274 344.817449 344.986335 345.636630 346.735598 348.237468 350.085214 352.212656 354.546810 357.010406 359.431342 361.833691 364.150212 366.318381 368.282136 369.993427 371.413505 372.513947 373.277360 373.697769 373.664900 373.320503 372.701121 371.851654 370.823529 369.672689 368.457472 367.236462 366.066367 365.000000 364.173302 363.529186 363.091570 362.875648 362.887633 363.124801 363.575809 364.221291 365.034696 365.983337 366.936530 367.954609 369.001637 370.039931 371.031092 371.937060 372.721179 373.349231 373.790425 374.018311 374.015825 373.763112 373.250760 372.476188 371.443911 370.165623 368.660096 366.952895 365.075902 363.066666 360.842093 358.584215 356.352175 354.205310 352.201204 350.393783 348.831516 347.555773 346.599402 345.985565 345.829988 346.022279 346.544520 347.368916 348.458869 349.770324 351.253329 352.853777 354.515259 356.180969 357.698385 359.121759 360.411776 361.534477 362.462097 363.173707 363.655662 363.901837 363.913646 363.699844 363.189429 362.498038 361.660300 360.714561 359.701353 358.661825 357.636189 356.662216 355.773854 355.000000 354.455666 354.056774 353.804451 353.693162 353.711196 353.841352 354.061821 354.347202 354.669637 355.000000 355.203528 355.367374 355.474080 355.508196 355.456649 355.309027 355.057777 354.698319 354.229059 353.651321 352.958748 352.169209 351.292433 350.339931 349.324531 348.259892 347.159993 346.038631 344.908934 343.782898 342.575888 341.399141 340.266700 339.189186 338.173151 337.220599 336.328677 335.489565 334.690576 333.914474 333.406080 332.853513 332.208363 331.423782 330.457104 329.272374 327.842670 326.152126 324.197561 321.989624 318.951269 315.774508 312.560988 309.418276 306.454946 303.775557 301.475709 299.637387 298.324766 297.580650 298.184496 299.303797 300.843573 302.690804 304.719597 306.796842 308.788141 310.563765 312.004431 313.006653 312.640690 311.767705 310.424019 308.665474 306.563852 304.202739 301.673005 299.068092 296.479307 293.991310 292.379686 290.941630 289.663564 288.520654 287.479147 286.499094 285.537352 284.550718 283.499051 282.348244 280.483096 278.530330 276.535136 274.549732 272.630905 270.837297 269.226578 267.852588 266.762597 265.994774 265.954164 266.243332 266.831625 267.677679 268.731169 269.934882 271.227033 272.543740 273.821559 275.000000 275.764122 276.349093 276.737254 276.918830 276.891777 276.661393 276.239702 275.644655 274.899177 274.030098 273.153516 272.206251 271.213132 270.199373 269.189957 268.209075 267.279610 266.422691 265.657310 265.000008 264.480391 264.093034 263.844589 263.738810 263.776684 263.956615 264.274641 264.724673 265.298744 265.987244 266.473357 267.075331 267.804520 268.668045 269.667273 270.796482 272.041784 273.380381 274.780206 276.200005 278.268037 280.192841 281.856234 283.143276 283.948131 284.179760 283.767230 282.664398 280.853772 278.349358 274.075455 269.330128 264.316690 259.256210 254.378127 249.910439 246.069840 243.052178 241.023586 240.112652 241.624874 244.26999