New loadshape.LS_PhaseA npts=17280 sinterval=5 pmult=(1072.766235 1072.148034 1071.535332 1070.930376 1070.334728 1069.749142 1069.173466 1068.606604 1068.046505 1067.490212 1066.933945 1066.373232 1065.803068 1065.052168 1064.291030 1063.523720 1062.753747 1061.983900 1061.216114 1060.451385 1059.689729 1058.930182 1058.170850 1057.409006 1056.641216 1055.706532 1054.767109 1053.827411 1052.891146 1051.961112 1051.039092 1050.125786 1049.220801 1048.322674 1047.428959 1046.536343 1045.640804 1044.576424 1043.509526 1042.444376 1041.384544 1040.332758 1039.290794 1038.259412 1037.238333 1036.226270 1035.220988 1034.219423 1033.217829 1032.055443 1030.893694 1029.736844 1028.588458 1027.451262 1026.327037 1025.216550 1024.119536 1023.034723 1021.959900 1020.892030 1019.827397 1018.606185 1017.388897 1016.179775 1014.982368 1013.799392 1012.632617 1011.482810 1010.349709 1009.232050 1008.127636 1007.033448 1005.945790 1004.705853 1003.473129 1002.251828 1001.045473 999.856757 998.687433 997.538254 996.408952 995.298263 994.203994 993.123133 992.051999 990.830060 989.618646 988.422084 987.244006 986.087196 984.953476 983.843643 982.757440 981.693580 980.649811 979.623022 978.609396 977.458363 976.320345 975.198866 974.096788 973.016197 971.958320 970.923493 969.911163 968.919929 967.947632 966.991475 966.048175 964.950630 963.868509 962.807500 961.772717 960.768515 959.798328 958.864566 957.968533 957.110412 956.289280 955.503175 954.749207 953.886221 953.055704 952.260755 951.503537 950.785167 950.105658 949.463899 948.857686 948.283794 947.738096 947.215717 946.711226 946.057272 945.419299 944.800744 944.204563 943.633078 943.087858 942.569646 942.078310 941.612847 941.171423 940.751450 940.349704 939.820026 939.309359 938.821618 938.360023 937.926947 937.523824 937.151078 936.808114 936.493341 936.204242 935.937487 935.689082 935.303813 934.936689 934.591432 934.271109 933.977993 933.713458 933.477922 933.270822 933.090638 932.934957 932.800575 932.683640 932.432520 932.198706 931.985870 931.797031 931.634421 931.499379 931.392290 931.312565 931.258661 931.228145 931.217800 931.223760 931.094970 930.982270 930.889291 930.819015 930.773638 930.754470 930.761869 930.795226 930.852979 930.932683 931.031107 931.144377 931.121918 931.114033 931.124317 931.155724 931.210423 931.289702 931.393901 931.522394 931.673608 931.845087 932.033596 932.235254 932.302179 932.381816 932.477607 932.592360 932.728124 932.886089 933.066531 933.268791 933.491302 933.731651 933.986682 934.252631 934.374451 934.507473 934.655754 934.822695 935.010884 935.221973 935.456591 935.714308 935.993633 936.292068 936.606193 936.931796 937.128730 937.335087 937.553058 937.784111 938.028895 938.287178 938.557830 938.838841 939.127387 939.419923 939.712327 940.000061 940.122227 940.239470 940.356099 940.476009 940.602516 940.738224 940.884918 941.043506 941.214000 941.395527 941.586398 941.784196 941.850807 941.925901 942.013455 942.116660 942.237787 942.378101 942.537815 942.716080 942.911031 943.119867 943.338977 943.564096 943.640107 943.721369 943.811417 943.913186 944.028871 944.159829 944.306512 944.468446 944.644248 944.831679 945.027745 945.228824 945.288019 945.352244 945.425167 945.509816 945.608448 945.722443 945.852245 945.997339 946.156270 946.326710 946.505554 946.689060 946.727861 946.771248 946.822900 946.885863 946.962405 947.053922 947.160870 947.282746 947.418109 947.564643 947.719254 947.878212 947.892102 947.910292 947.936477 947.973715 948.024290 948.089610 948.170143 948.265399 948.373950 948.493488 948.620933 948.752566 948.738917 948.729435 948.727831 948.737175 948.759764 948.797019 948.849420 948.916487 948.996803 949.088071 949.187221 949.290542 949.248446 949.210532 949.180526 949.161513 949.155807 949.164839 949.189102 949.228128 949.280508 949.343953 949.415398 949.491138 949.421758 949.356685 949.299637 949.253694 949.221161 949.203467 949.201103 949.213602 949.239559 949.276698 949.321968 949.371684 949.275957 949.184774 949.101919 949.030536 948.972994 948.930785 948.904457 948.893597 948.896843 948.911955 948.935906 948.965027 948.850026 948.740250 948.639425 948.550626 948.476149 948.417403 948.374856 948.348009 948.335424 948.334782 948.342990 948.356318 948.224776 948.098373 947.980847 947.875303 947.784074 947.708618 947.649452 947.606138 947.577298 947.560677 947.553245 947.551332 947.405468 947.265220 947.134344 947.015954 946.912387 946.825100 946.754606 946.700454 946.661255 946.634736 946.617849 946.606906 946.452195 946.303502 946.164580 946.038542 945.927722 945.833575 945.756614 945.696392 945.651519 945.619726 945.597968 945.582559 945.423887 945.271642 945.129573 945.000791 944.887627 944.791534 944.713024 944.651646 944.606007 944.573836 944.552087 944.537072 944.379209 944.228150 944.087641 943.960787 943.849917 943.756478 943.680978 943.622962 943.581035 943.552921 943.535570 943.525291 943.372542 943.226926 943.092180 942.971407 942.866926 942.780181 942.711675 942.660946 942.626595 942.606341 942.597130 942.595265 942.450364 942.312905 942.186670 942.074799 941.979647 941.902680 941.844417 941.804398 941.781213 941.772559 941.775344 941.785821 941.656533 941.534730 941.423945 941.327077 941.246262 941.182781 941.137003 941.108376 941.095453 941.095960 941.106899 941.124694 940.996314 940.875462 940.766378 940.672693 940.597280 940.542135 940.508300 940.495824 940.503771 940.530264 940.572577 940.627258 940.549364 940.483810 940.434017 940.402680 940.391644 940.401813 940.433109 940.484458 940.553834 940.638334 940.734300 940.837463 940.794262 940.757528 940.730801 940.717041 940.718487 940.736553 940.771758 940.823700 940.891070 940.971704 941.062680 941.160440 941.118033 941.082565 941.057742 941.046621 941.051471 941.073671 941.113648 941.170863 941.243824 941.330157 941.426708 941.529680 941.489075 941.454756 941.430381 941.418974 941.422781 941.443177 941.480598 941.534524 941.603496 941.685184 941.776480 941.873644 941.827714 941.787567 941.756861 941.738616 941.735082 941.747633 941.776708 941.821790 941.881425 941.953287 942.034274 942.120653 942.063577 942.011817 941.969033 941.938249 941.921716 941.920814 941.935986 941.966721 942.011573 942.068221 942.133575 942.203909 942.130496 942.062005 942.002099 941.953807 941.919388 941.900227 941.896775 941.908529 941.934053 941.971037 942.016401 942.066432 941.975307 941.888663 941.810012 941.742242 941.687495 941.647066 941.621352 941.609833 941.611096 941.622903 941.642284 941.665681 941.538379 941.415833 941.302324 941.201479 941.116114 941.048098 940.998275 940.966414 940.951210 940.950329 940.960498 940.977624 940.864795 940.756879 940.655924 940.563241 940.479317 940.403763 940.335306 940.271819 940.210389 940.147427 940.078812 940.000061 939.749145 939.488234 939.221932 938.954479 938.689581 938.430266 938.178779 937.936509 937.703962 937.480771 937.265743 937.056954 936.719761 936.391134 936.075281 935.775594 935.494522 935.233484 934.992826 934.771821 934.568713 934.380806 934.204590 934.035905 933.719601 933.410355 933.111835 932.827119 932.558551 932.307650 932.075042 931.860436 931.662642 931.479628 931.308613 931.146195 930.847071 930.556967 930.279693 930.018425 929.775566 929.552645 929.350258 929.168047 929.004721 928.858115 928.725294 928.602692 928.341974 928.091732 927.855772 927.637263 927.438603 927.261316 927.105989 926.972255 926.858811 926.763482 926.683320 926.614742 926.409257 926.215582 926.037514 925.878214 925.740066 925.624584 925.532340 925.462953 925.415103 925.386595 925.374463 925.375101 925.239803 925.117456 925.011843 924.926111 924.862628 924.822890 924.807451 924.815910 924.846924 924.898273 924.966965 925.049364 924.993397 924.951427 924.927398 924.924601 924.945527 924.991758 925.063899 925.161552 925.283332 925.426929 925.589206 925.766340 925.815952 925.879642 925.960486 926.060945 926.182749 926.326827 926.493275 926.681359 926.889556 927.115642 927.356804 927.609786 927.712141 927.828597 927.964706 928.125495 928.315272 928.537470 928.794522 929.087789 929.417520 929.782866 930.181932 930.611877 930.937885 931.294573 931.684644 932.109852 932.570913 933.067442 933.597944 934.159848 934.749580 935.362686 935.993987 936.637769 937.128357 937.628757 938.142100 938.671079 939.217799 939.783656 940.369254 940.974360 941.597902 942.237993 942.892013 943.556710 944.088800 944.631974 945.189959 945.765793 946.361685 946.978910 947.617748 948.277465 948.956337 949.651720 950.360156 951.077524 951.649098 952.228973 952.820718 953.427256 954.050726 954.692380 955.352521 956.030474 956.724611 957.432414 958.150572 958.875122 959.454192 960.039176 960.633647 961.240530 961.861968 962.499214 963.152568 963.821353 964.503937 965.197794 965.899607 966.605406 967.162939 967.723987 968.292136 968.870323 969.460702 970.064535 970.682128 971.312812 971.954958 972.606045 973.262757 973.921127 974.428567 974.937224 975.450703 975.971964 976.503179 977.045626 977.599630 978.164535 978.738726 979.319694 979.904136 980.488096 980.922247 981.355337 981.790798 982.231430 982.679270 983.135499 983.600380 984.073246 984.552523 985.035793 985.519902 986.001091 986.318345 986.633319 986.950446 987.273488 987.605359 987.947991 988.302231 988.667794 989.043256 989.426092 989.812764 990.198852 990.445728 990.689158 990.930762 991.171376 991.410976 991.648638 991.882538 992.109996 992.327558 992.531122 992.716092 992.877563 992.844721 992.788372 992.713420 992.624462 992.525605 992.420302 992.311236 992.200231 992.088210 991.975196 991.860348 991.742042 991.484264 991.225867 990.971278 990.724041 990.486683 990.260633 990.046177 989.842465 989.647564 989.458551 989.271657 989.082435 988.728736 988.372052 988.016152 987.664205 987.318638 986.981032 986.652060 986.331458 986.018043 985.709771 985.403829 985.096774 984.639118 984.180913 983.726138 983.278116 982.839373 982.411538 981.995274 981.590261 981.195217 980.807963 980.425527 980.044286 979.511095 978.979533 978.453602 977.936647 977.431215 976.938955 976.460549 975.995698 975.543139 975.100711 974.665463 974.233790 973.652641 973.075541 972.506505 971.948891 971.405259 970.877270 970.365618 969.870015 969.389211 968.921056 968.462609 968.010277 967.411102 966.818535 966.236594 965.668643 965.117246 964.584065 964.069801 963.574169 963.095919 962.632906 962.182192 961.740185 961.152833 960.574740 960.009988 959.461999 958.933385 958.425846 957.940106 957.475884 957.031922 956.606044 956.195262 955.795921 955.257812 954.731290 954.220105 953.727358 953.255369 952.805590 952.378545 951.973825 951.590119 951.225280 950.876443 950.540164 950.058736 949.591157 949.142105 948.715647 948.315071 947.942767 947.600138 947.287560 947.004381 946.748967 946.518789 946.310547 945.977119 945.665934 945.380568 945.123824 944.897605 944.702833 944.539399 944.406166 944.301013 944.220918 944.162085 944.120105 943.936106 943.768282 943.620355 943.495468 943.396038 943.323647 943.278969 943.261740 943.270770 943.303996 943.358577 943.431016 943.370893 943.329060 943.309443 943.315293 943.349042 943.412201 943.505293 943.627835 943.778363 943.954491 944.153027 944.370110 944.450762 944.549918 944.671417 944.818438 944.993359 945.197654 945.431823 945.695375 945.986848 946.303870 946.643265 947.001195 947.223476 947.464217 947.727231 948.015670 948.331883 948.677310 949.052420 949.456683 949.888598 950.345748 950.824914 951.322205 951.682885 952.061525 952.461913 952.887175 953.339634 953.820700 954.330808 954.869393 955.434911 956.024906 956.636107 957.264576 957.754931 958.262300 958.790450 959.342486 959.920707 960.526494 961.160253 961.821384 962.508304 963.218513 963.948695 964.694862 965.299949 965.920737 966.561032 967.223974 967.911883 968.626154 969.367184 970.134353 970.926037 971.739675 972.571873 973.418547 974.124945 974.845154 975.582709 976.340486 977.120563 977.924119 978.751381 979.601604 980.473099 981.363307 982.268901 983.185941 983.952777 984.731303 985.525824 986.340011 987.176735 988.037945 988.924583 989.836537 990.772653 991.730774 992.707840 993.700012 994.553451 995.421462 996.307482 997.214183 998.143332 999.095706 1000.071029 1001.067974 1002.084194 1003.116408 1004.160522 1005.211791 1006.106183 1007.006426 1007.916103 1008.838181 1009.774865 1010.727481 1011.696400 1012.681009 1013.679725 1014.690047 1015.708655 1016.731547 1017.600935 1018.474261 1019.355311 1020.247178 1021.152113 1022.071416 1023.005369 1023.953211 1024.913158 1025.882477 1026.857589 1027.834218 1028.650488 1029.467643 1030.289445 1031.118975 1031.958484 1032.809282 1033.671672 1034.544923 1035.427291 1036.316085 1037.207776 1038.098143 1038.825693 1039.551379 1040.278993 1041.011644 1041.751610 1042.500225 1043.257810 1044.023651 1044.796018 1045.572233 1046.348777 1047.121437 1047.728228 1048.330659 1048.932560 1049.537075 1050.146515 1050.762244 1051.384610 1052.012924 1052.645481 1053.279622 1053.911851 1054.537974 1054.995648 1055.446824 1055.895375 1056.344485 1056.796504 1057.252829 1057.713846 1058.178897 1058.646308 1059.113453 1059.576866 1060.032384 1060.320919 1060.601083 1060.876595 1061.150502 1061.425036 1061.701517 1061.980287 1062.260695 1062.541121 1062.819050 1063.091177 1063.353556 1063.435830 1063.509115 1063.578124 1063.646855 1063.718414 1063.794865 1063.877136 1063.964965 1064.056896 1064.150325 1064.241593 1064.326124 1064.255695 1064.175907 1064.088729 1063.995306 1063.895878 1063.789728 1063.675181 1063.549646 1063.409697 1063.251199 1063.069476 1062.859497 1062.441922 1061.996285 1061.527765 1061.041188 1060.540829 1060.030259 1059.512212 1058.988508 1058.460012 1057.926634 1057.387385 1056.840458 1056.140935 1055.436741 1054.732589 1054.032274 1053.338534 1052.652964 1051.975965 1051.306754 1050.643414 1049.982996 1049.321663 1048.654871 1047.812660 1046.964599 1046.114751 1045.266539 1044.422599 1043.584673 1042.753540 1041.928994 1041.109859 1040.294052 1039.478685 1038.660206 1037.681566 1036.700626 1035.721638 1034.748167 1033.782937 1032.827731 1031.883316 1030.949433 1030.024812 1029.107248 1028.193707 1027.280475 1026.207526 1025.135570 1024.068864 1023.010979 1021.964647 1020.931660 1019.912802 1018.907827 1017.915488 1016.933602 1015.959163 1014.988486 1013.862265 1012.740518 1011.627495 1010.526758 1009.441038 1008.372123 1007.320800 1006.286832 1005.268980 1004.265074 1003.272125 1002.286467 1001.149541 1000.020618 998.903926 997.803011 996.720585 995.658426 994.617313 993.597002 992.596254 991.612904 990.643966 989.685782 988.577855 987.481509 986.401095 985.340269 984.301840 983.287658 982.298543 981.334264 980.393560 979.474200 978.573098 977.686459 976.663199 975.654304 974.663349 973.693248 972.746133 971.823276 970.925050 970.050933 969.199549 968.368755 967.555760 966.757280 965.805803 964.871382 963.959708 963.075894 962.224284 961.408303 960.630341 959.891684 959.192491 958.531815 957.907669 957.317139 956.617647 955.952121 955.323736 954.734728 954.186291 953.678512 953.210351 952.779666 952.383290 952.017142 951.676385 951.355617 950.886342 950.435213 950.005738 949.600932 949.223165 948.874043 948.554327 948.263893 948.001731 947.765984 947.554033 947.362610 947.043468 946.745620 946.473045 946.229018 946.015960 945.835340 945.687608 945.572177 945.487453 945.430902 945.399166 945.388208 945.240508 945.113370 945.010588 944.935288 944.889794 944.875515 944.892887 944.941347 945.019359 945.124476 945.253444 945.402348 945.416691 945.450795 945.508407 945.592611 945.705688 945.849009 946.022971 946.226977 946.459456 946.717926 946.999101 947.299032 947.463294 947.646045 947.850993 948.081188 948.338874 948.625390 948.941101 949.285380 949.656623 950.052319 950.469151 950.903140 951.199821 951.513313 951.847296 952.204789 952.588013 952.998279 953.435927 953.900303 954.389778 954.901817 955.433075 955.979547 956.388109 956.811397 957.252986 957.715800 958.201971 958.712741 959.248396 959.808248 960.390658 960.993097 961.612255 962.244177 962.730699 963.229935 963.745854 964.281760 964.840130 965.422495 966.029363 966.660181 967.313346 967.986259 968.675422 969.376572 969.940703 970.515243 971.102962 971.705921 972.325346 972.961554 973.613912 974.280846 974.959881 975.647733 976.340438 977.033508 977.564101 978.094633 978.629249 979.171577 979.724570 980.290372 980.870231 981.464448 982.072370 982.692428 983.322212 983.958590 984.452961 984.954659 985.467626 985.995042 986.539189 987.101353 987.681766 988.279592 988.892966 989.519065 990.154232 990.794131 991.278755 991.767357 992.263607 992.770532 993.290374 993.824486 994.373259 994.936102 995.511459 996.096871 996.689074 997.284143 997.726967 998.172419 998.624269 999.085621 999.558768 1000.045089 1000.544978 1001.057822 1001.582025 1002.115069 1002.653621 1003.193677 1003.578163 1003.963879 1004.354622 1004.753523 1005.162900 1005.584154 1006.017697 1006.462935 1006.918288 1007.381251 1007.848504 1008.316052 1008.626476 1008.936975 1009.251375 1009.572835 1009.903703 1010.245400 1010.598364 1010.962020 1011.334806 1011.714234 1012.097000 1012.479125 1012.702896 1012.925863 1013.151885 1013.384150 1013.625032 1013.875981 1014.137458 1014.408910 1014.688797 1014.974649 1015.263183 1015.550436 1015.679270 1015.806680 1015.936513 1016.071945 1016.215340 1016.368149 1016.530837 1016.702870 1016.882731 1017.067993 1017.255417 1017.441106 1017.465177 1017.487693 1017.512749 1017.543760 1017.583310 1017.633036 1017.693556 1017.764437 1017.844217 1017.930457 1018.019853 1018.108372 1018.041122 1017.972436 1017.905791 1017.843962 1017.788889 1017.741581 1017.702071 1017.669402 1017.641669 1017.616094 1017.589147 1017.556702 1017.356627 1017.151176 1016.944582 1016.740482 1016.541757 1016.350420 1016.167530 1015.993159 1015.826401 1015.665422 1015.507553 1015.349423 1015.036787 1014.724691 1014.417276 1014.117956 1013.829272 1013.552794 1013.289055 1013.037543 1012.796720 1012.564107 1012.336389 1012.109576 1011.723651 1011.338679 1010.958661 1010.586934 1010.226029 1009.877556 1009.542147 1009.219429 1008.908046 1008.605723 1008.309376 1008.015249 1007.566308 1007.119933 1006.680178 1006.250419 1005.833215 1005.430192 1005.041987 1004.668221 1004.307525 1003.957601 1003.615338 1003.276950 1002.784749 1002.296754 1001.817026 1001.348949 1000.895086 1000.457072 1000.035551 999.630153 999.239516 998.861355 998.492569 998.129382 997.614307 997.105178 996.606055 996.120325 995.650550 995.198370 994.764430 994.348364 993.948814 993.563500 993.189327 992.822527 992.305812 991.796817 991.299599 990.817538 990.353194 989.908202 989.483206 989.077839 988.690742 988.319636 987.961424 987.612340 987.114842 986.626831 986.152381 985.694885 985.256917 984.840118 984.445137 984.071602 983.718150 983.382486 983.061493 982.751378 982.296201 981.852094 981.422992 981.012161 980.622053 980.254210 979.909196 979.586588 979.284994 979.002128 978.734914 978.479638 978.077630 977.688165 977.315523 976.963325 976.634381 976.330581 976.052816 975.800952 975.573843 975.369391 975.184642 975.015930 974.708687 974.417694 974.146800 973.899137 973.676982 973.481657 973.313473 973.171713 973.054665 972.959697 972.883369 972.821586 972.615368 972.423507 972.249899 972.097795 971.969655 971.867042 971.790555 971.739799 971.713408 971.709102 971.723794 971.753726 971.643122 971.547967 971.472222 971.419168 971.391264 971.390036 971.416015 971.468716 971.546658 971.647429 971.767800 971.903863 971.898065 971.907962 971.937471 971.989840 972.067497 972.171946 972.303700 972.462261 972.646139 972.852917 973.079360 973.321558 973.422155 973.538469 973.674403 973.833184 974.017223 974.228004 974.466017 974.730742 975.020662 975.333334 975.665493 976.013197 976.218723 976.439696 976.680003 976.942857 977.230650 977.544850 977.885926 978.253334 978.645533 979.060051 979.493594 979.942186 980.247648 980.568004 980.907129 981.268224 981.653669 982.064913 982.502408 982.965588 983.452888 983.961808 984.489023 985.030525 985.427726 985.838999 986.268204 986.718527 987.192332 987.691049 988.215113 988.763934 989.335927 989.928567 990.538504 991.161705 991.638536 992.128412 992.635227 993.162198 993.711712 994.285217 994.883155 995.504932 996.148946 996.812643 997.492630 998.184815 998.729735 999.286462 999.858787 1000.449815 1001.061820 1001.696137 1002.353095 1003.031997 1003.731145 1004.447904 1005.178815 1005.919739 1006.509272 1007.108505 1007.721359 1008.351085 1009.000114 1009.669943 1010.361063 1011.072936 1011.804012 1012.551790 1013.312928 1014.083383 1014.702307 1015.330315 1015.971321 1016.628542 1017.304351 1018.000166 1018.716383 1019.452351 1020.206397 1020.975891 1021.757355 1022.546614 1023.181044 1023.822890 1024.476056 1025.143755 1025.828366 1026.531316 1027.253016 1027.992833 1028.749112 1029.519243 1030.299767 1031.086528 1031.716602 1032.352578 1032.998388 1033.657266 1034.331609 1035.022853 1035.731412 1036.456649 1037.196902 1037.949544 1038.711098 1039.477384 1040.084569 1040.696156 1041.316100 1041.947659 1042.593243 1043.254303 1043.931262 1044.623486 1045.329312 1046.046109 1046.770393 1047.497972 1048.064282 1048.633581 1049.209850 1049.796371 1050.395574 1051.008927 1051.636865 1052.278761 1052.932956 1053.596819 1054.266861 1054.938886 1055.447647 1055.958117 1056.474306 1056.999522 1057.536220 1058.085885 1058.648968 1059.224855 1059.811891 1060.407450 1061.008046 1061.609480 1062.046875 1062.484823 1062.927307 1063.377613 1063.838176 1064.310469 1064.794935 1065.290966 1065.796923 1066.310208 1066.827374 1067.344277 1067.692288 1068.040118 1068.392054 1068.751670 1069.121663 1069.503731 1069.898491 1070.305450 1070.723016 1071.148566 1071.578546 1072.008626 1072.276004 1072.542617 1072.811987 1073.086891 1073.369221 1073.659892 1073.958786 1074.264750 1074.575632 1074.888371 1075.199121 1075.503418 1075.629115 1075.748320 1075.865492 1075.984476 1076.108333 1076.239213 1076.378269 1076.525612 1076.680322 1076.840493 1077.003332 1077.165293 1077.163660 1077.161936 1077.164466 1077.174815 1077.195618 1077.228473 1077.273874 1077.331195 1077.398724 1077.473739 1077.552636 1077.631083 1077.538854 1077.446015 1077.356743 1077.274513 1077.201946 1077.140691 1077.091360 1077.053500 1077.025615 1077.005235 1076.989027 1076.972947 1076.790157 1076.607703 1076.429832 1076.260073 1076.101086 1075.954543 1075.821061 1075.700180 1075.590384 1075.489170 1075.393168 1075.298288 1075.036600 1074.776230 1074.521444 1074.275785 1074.041928 1073.821558 1073.615305 1073.422721 1073.242302 1073.071557 1072.907128 1072.744937 1072.417071 1072.091672 1071.773015 1071.464655 1071.169275 1070.888571 1070.623182 1070.372668 1070.135534 1069.909300 1069.690616 1069.475414 1069.095861 1068.720044 1068.352240 1067.996012 1067.654046 1067.328045 1067.018651 1066.725432 1066.446898 1066.180574 1065.923118 1065.670470 1065.255760 1064.846078 1064.445657 1064.058013 1063.685796 1063.330680 1062.993289 1062.673184 1062.368881 1062.077928 1061.797012 1061.522122 1061.083869 1060.652134 1060.231370 1059.825306 1059.436787 1059.067650 1058.718649 1058.389423 1058.078516 1057.783444 1057.500798 1057.226405 1056.796344 1056.374180 1055.963686 1055.567890 1055.188927 1054.827950 1054.485068 1054.159347 1053.848839 1053.550676 1053.261188 1052.976074 1052.524116 1052.076798 1051.638635 1051.213506 1050.804492 1050.413742 1050.042401 1049.690566 1049.357297 1049.040670 1048.737881 1048.445380 1048.000283 1047.566357 1047.147982 1046.748767 1046.371398 1046.017534 1045.687737 1045.381461 1045.097080 1044.831965 1044.582610 1044.344789 1043.949712 1043.566177 1043.198381 1042.849815 1042.523112 1042.219939 1041.940921 1041.685623 1041.452567 1041.239307 1041.042535 1040.858232 1040.520713 1040.195890 1039.887974 1039.600460 1039.335975 1039.096163 1038.881621 1038.691871 1038.525387 1038.379663 1038.251326 1038.136294 1037.868151 1037.613436 1037.376330 1037.160299 1036.967942 1036.800878 1036.659677 1036.543836 1036.451805 1036.381055 1036.328188 1036.289098 1036.097483 1035.919702 1035.759907 1035.621532 1035.507148 1035.418343 1035.355661 1035.318572 1035.305497 1035.313881 1035.340302 1035.380626 1035.268637 1035.170541 1035.090455 1035.031782 1034.997063 1034.987856 1035.004674 1035.046960 1035.113107 1035.200532 1035.305786 1035.424706 1035.388250 1035.365534 1035.360810 1035.377603 1035.418551 1035.485287 1035.578361 1035.697217 1035.840205 1036.004656 1036.186991 1036.382873 1036.432669 1036.495084 1036.573546 1036.670794 1036.788748 1036.928425 1037.089895 1037.272287 1037.473827 1037.691930 1037.923325 1038.164218 1038.236657 1038.320524 1038.421551 1038.544863 1038.694783 1038.874662 1039.086755 1039.332151 1039.610737 1039.921224 1040.261215 1040.627319 1040.867815 1041.134065 1041.429134 1041.755098 1042.112926 1042.502412 1042.922155 1043.369584 1043.841033 1044.331866 1044.836639 1045.349302 1045.689882 1046.035708 1046.390243 1046.756433 1047.136540 1047.532021 1047.943437 1048.370408 1048.811611 1049.264824 1049.727009 1050.194436 1050.508584 1050.828231 1051.157393 1051.499339 1051.856434 1052.230032 1052.620402 1053.026713 1053.447059 1053.878534 1054.317352 1054.759002 1055.034958 1055.313084 1055.597248 1055.890615 1056.195495 1056.513230 1056.844126 1057.187427 1057.541341 1057.903109 1058.269112 1058.635028 1058.835706 1059.035825 1059.239262 1059.449189 1059.667930 1059.896838 1060.136238 1060.385394 1060.642538 1060.904938 1061.169005 1061.430453 1061.524565 1061.615650 1061.707600 1061.803607 1061.906013 1062.016198 1062.134511 1062.260250 1062.391681 1062.526110 1062.659992 1062.789087 1062.749216 1062.704240 1062.658075 1062.613938 1062.574202 1062.540279 1062.512555 1062.490369 1062.472031 1062.454898 1062.435480 1062.409593 1062.219843 1062.023090 1061.822926 1061.622281 1061.423283 1061.227169 1061.034224 1060.843775 1060.654218 1060.463092 1060.267189 1060.062702 1059.673094 1059.276483 1058.878174 1058.482744 1058.093825 1057.713945 1057.344401 1056.985183 1056.634958 1056.291093 1055.949740 1055.605964 1055.123107 1054.633331 1054.137032 1053.633685 1053.121810 1052.598966 1052.061807 1051.506168 1050.927200 1050.319539 1049.677511 1048.995361 1048.081696 1047.128316 1046.141271 1045.126518 1044.089700 1043.035940 1041.969683 1040.894557 1039.813294 1038.727677 1037.638548 1036.545843 1035.319417 1034.094723 1032.876947 1031.670188 1030.477328 1029.299962 1028.138365 1026.991527 1025.857221 1024.732134 1023.612032 1022.491971 1021.197430 1019.902127 1018.610068 1017.324662 1016.048580 1014.783653 1013.530798 1012.290000 1011.060315 1009.839937 1008.626285 1007.416139 1006.057686 1004.703986 1003.359358 1002.027438 1000.711031 999.412011 998.131254 996.868618 995.622972 994.392257 993.173602 991.963465 990.604377 989.254750 987.918895 986.600437 985.302178 984.025989 982.772748 981.542319 980.333575 979.144471 977.972147 976.813079 975.510518 974.222135 972.952214 971.704358 970.481348 969.285035 968.116283 966.974944 965.859883 964.769045 963.699568 962.647920 961.457968 960.286708 959.138384 958.016558 956.923977 955.862460 954.832837 953.834933 952.867587 951.928719 951.015442 950.124201 949.092793 948.084533 947.103986 946.155011 945.240600 944.362756 943.522419 942.719433 941.952563 941.219557 940.517251 939.841721 939.052289 938.288488 937.553031 936.847999 936.174763 935.533939 934.925385 934.348239 933.800987 933.281572 932.787533 932.316170 931.685295 931.082414 930.515447 929.991886 929.518537 929.101294 928.744959 928.453095 928.227936 928.070344 927.979813 927.954529 927.871622 927.854008 927.903541 928.020763 928.204852 928.453611 928.763514 929.129798 929.546604 930.007167 930.504034 931.029322 931.395603 931.785079 932.200488 932.644328 933.118694 933.625135 934.164552 934.737122 935.342266 935.978652 936.644236 937.336344 937.915543 938.522498 939.161167 939.834749 940.545531 941.294782 942.082693 942.908357 943.769807 944.664085 945.587369 946.535129 947.344160 948.176635 949.036137 949.925588 950.847097 951.801855 952.790070 953.810942 954.862682 955.942578 957.047095 958.172025 959.160477 960.168546 961.199788 962.257096 963.342550 964.457311 965.601553 966.774441 967.974148 969.197920 970.442180 971.702674 972.821811 973.956312 975.109723 976.284925 977.483988 978.708057 979.957291 981.230832 982.526831 983.842506 985.174252 986.517778 987.714708 988.922515 990.144755 991.384317 992.643276 993.922781 995.222988 996.543035 997.881064 999.234280 1000.599062 1001.971104 1003.197392 1004.429707 1005.671278 1006.924691 1008.191762 1009.473439 1010.769746 1012.079772 1013.401694 1014.732846 1016.069826 1017.408637 1018.575247 1019.744512 1020.921403 1022.110178 1023.314170 1024.535625 1025.775566 1027.033724 1028.308509 1029.597031 1030.895180 1032.197751 1033.369377 1034.540038 1035.709750 1036.877625 1038.041821 1039.199555 1040.347139 1041.480074 1042.593180 1043.680763 1044.736816 1045.755249 1046.543456 1047.293599 1048.011460 1048.702743 1049.372847 1050.026662 1050.668392 1051.301424 1051.928232 1052.550333 1053.168278 1053.781693 1054.258248 1054.734779 1055.216232 1055.706456 1056.208080 1056.722422 1057.249470 1057.787896 1058.335136 1058.887509 1059.440390 1059.988415 1060.352506 1060.710071 1061.064910 1061.420220 1061.778449 1062.141185 1062.509081 1062.881827 1063.258156 1063.635904 1064.012101 1064.383109 1064.591192 1064.794542 1064.997334 1065.203051 1065.414322 1065.632814 1065.859164 1066.092953 1066.332726 1066.576064 1066.819693 1067.059636 1067.130853 1067.198604 1067.267123 1067.339944 1067.419743 1067.508232 1067.606081 1067.712902 1067.827267 1067.946777 1068.068175 1068.187497 1068.139035 1068.088794 1068.041057 1067.999398 1067.966534 1067.944206 1067.933114 1067.932891 1067.942127 1067.958436 1067.978570 1067.998574 1067.852146 1067.705939 1067.564273 1067.430752 1067.308119 1067.198140 1067.101531 1067.017939 1066.945961 1066.883218 1066.826464 1066.771740 1066.548753 1066.328368 1066.115127 1065.912839 1065.724421 1065.551772 1065.395699 1065.255886 1065.130914 1065.018330 1064.914758 1064.816054 1064.562761 1064.313791 1064.072749 1063.842539 1063.625255 1063.422090 1063.233306 1063.058237 