New loadshape.LS_PhaseA npts=17280 sinterval=5 pmult=(262.555908 262.665558 262.777045 262.891433 263.009610 263.132245 263.259761 263.392318 263.529804 263.671840 263.817800 263.966836 264.117915 264.229311 264.342726 264.459186 264.579538 264.704410 264.834177 264.968954 265.108581 265.252635 265.400443 265.551117 265.703586 265.815724 265.929591 266.046211 266.166431 266.290881 266.419949 266.553756 266.692154 266.834733 266.980833 267.129579 267.279912 267.389666 267.500965 267.614845 267.732162 267.853553 267.979409 268.109852 268.244737 268.383647 268.525921 268.670673 268.816840 268.921981 269.028493 269.137420 269.249624 269.365747 269.486183 269.611060 269.740230 269.873281 270.009550 270.148151 270.288018 270.386538 270.486287 270.588316 270.693492 270.802464 270.915630 271.033120 271.154791 271.280230 271.408774 271.539537 271.671451 271.761732 271.853134 271.946715 272.043350 272.143692 272.248144 272.356840 272.469638 272.586127 272.705645 272.827305 272.950037 273.031220 273.113436 273.197730 273.284967 273.375792 273.470599 273.569519 273.672409 273.778861 273.888220 273.999610 274.111978 274.181470 274.252014 274.324754 274.400646 274.480420 274.564542 274.653197 274.746278 274.843390 274.943864 275.046789 275.151043 275.214711 275.279457 275.346167 275.415528 275.487997 275.563776 275.642802 275.724744 275.809015 275.894797 275.981076 276.066681 276.106556 276.145769 276.185514 276.226828 276.270555 276.317304 276.367430 276.421019 276.477888 276.537602 276.599488 276.662678 276.685200 276.709300 276.736130 276.766632 276.801503 276.841165 276.885750 276.935094 276.988746 277.045993 277.105887 277.167292 277.185656 277.205476 277.227844 277.253670 277.283641 277.318195 277.357496 277.401433 277.449621 277.501425 277.555979 277.612236 277.626664 277.642848 277.661901 277.684748 277.712086 277.744355 277.781717 277.824054 277.870968 277.921806 277.975683 278.031526 278.045311 278.061100 278.080008 278.102964 278.130666 278.163555 278.201795 278.245263 278.293562 278.346034 278.401791 278.459756 278.475753 278.493992 278.515592 278.541482 278.572362 278.608673 278.650576 278.697949 278.750390 278.807237 278.867597 278.930388 278.951284 278.974639 279.001575 279.033022 279.069680 279.111988 279.160107 279.213911 279.272994 279.336690 279.404100 279.474136 279.501889 279.532312 279.566552 279.605562 279.650061 279.700501 279.757051 279.819585 279.887692 279.960689 280.037658 280.117481 280.156479 280.198228 280.243760 280.293914 280.349308 280.410304 280.477000 280.549226 280.626549 280.708299 280.793598 280.881405 280.925163 280.971750 281.022542 281.078736 281.141307 281.210966 281.288134 281.372929 281.465162 281.564353 281.669750 281.780365 281.853351 281.931538 282.015907 282.107209 282.205922 282.312233 282.426021 282.546860 282.674033 282.806561 282.943235 283.082670 283.177654 283.275038 283.375868 283.481025 283.591180 283.706767 283.827955 283.954640 284.086451 284.222760 284.362710 284.505252 284.606162 284.709729 284.817083 284.929154 285.046632 285.169933 285.299182 285.434207 285.574545 285.719461 285.867982 286.018936 286.126415 286.236248 286.349547 286.467229 286.589974 286.718196 286.852026 286.991298 287.135561 287.284097 287.435949 287.589967 287.700526 287.813192 287.929079 288.049107 288.173959 288.304050 288.439510 288.580173 288.725587 288.875030 289.027544 289.181972 289.292526 289.404937 289.520324 289.639611 289.763484 289.892361 290.026371 290.165352 290.308848 290.456139 290.606262 290.758059 290.865576 290.974713 291.086595 291.202150 291.322070 291.446775 291.576399 291.710778 291.849461 291.991723 292.136604 292.282942 292.385455 292.489334 292.595661 292.705328 292.818994 292.937054 293.059626 293.186540 293.317350 293.451352 293.587611 293.725011 293.815393 293.907103 294.001458 294.099577 294.202324 294.310270 294.423667 294.542433 294.666153 294.794091 294.925217 295.058250 295.150187 295.243381 295.338486 295.435927 295.535874 295.638220 295.742583 295.848312 295.954504 296.060047 296.163652 296.263916 296.310090 296.352935 296.393877 296.434229 296.475130 296.517507 296.562036 296.609122 296.658892 296.711198 296.765631 296.821554 296.836262 296.853130 296.873473 296.898352 296.928533 296.964460 297.006241 297.053646 297.106119 297.162812 297.222615 297.284215 297.298556 297.314527 297.333285 297.355802 297.382818 297.414810 297.451971 297.494203 297.541122 297.592076 297.646174 297.702326 297.714264 297.728363 297.745831 297.767674 297.794652 297.827251 297.865656 297.909751 297.959119 298.013070 298.070663 298.130757 298.146001 298.163808 298.185388 298.211754 298.243667 298.281614 298.325781 298.376048 298.431999 298.492935 298.557912 298.625783 298.648986 298.675139 298.705456 298.740950 298.782386 298.830248 298.884720 298.945682 299.012709 299.085099 299.161899 299.241952 299.277481 299.316311 299.359659 299.408537 299.463710 299.525660 299.594569 299.670309 299.752451 299.840284 299.932846 300.028970 300.079957 300.134578 300.194090 300.259541 300.331724 300.411143 300.497991 300.592140 300.693151 300.800287 300.912553 301.028733 301.102138 301.179289 301.261254 301.348896 301.442842 301.543448 301.650795 301.764678 301.884623 302.009911 302.139615 302.272640 302.357647 302.446491 302.540796 302.642004 302.751317 302.869655 302.997619 303.135472 303.283134 303.440191 303.605913 303.779297 303.915034 304.058389 304.210349 304.371624 304.542614 304.723382 304.913649 305.112796 305.319883 305.533685 305.752732 305.975372 306.149236 306.326093 306.507027 306.692962 306.884607 307.082427 307.286608 307.497056 307.713386 307.934944 308.160831 308.389938 308.574768 308.762904 308.955566 309.153753 309.358200 309.569342 309.787293 310.011841 310.242454 310.478303 310.718295 310.961122 311.156585 311.354730 311.556743 311.763598 311.976014 312.194420 312.418932 312.649349 312.885156 313.125549 313.369461 313.615615 313.814320 314.015143 314.219270 314.427677 314.641083 314.859914 315.084285 315.313991 315.548512 315.787037 316.028495 316.271598 316.466450 316.662820 316.861898 317.064664 317.271835 317.483840 317.700793 317.922486 318.148397 318.377712 318.609354 318.842031 319.025658 319.210195 319.396836 319.586563 319.780099 319.977874 320.180002 320.386277 320.596177 320.808884 321.023320 321.238192 321.403943 321.569972 321.737442 321.907301 322.080248 322.256690 322.436731 322.620157 322.806453 322.994815 323.184191 323.373321 323.510271 323.647055 323.785030 323.925336 324.068840 324.216097 324.367321 324.522376 324.680770 324.841677 325.003967 325.166249 325.280894 325.394923 325.509144 325.624124 325.740154 325.857231 325.975047 326.092992 326.210179 326.325470 326.437527 326.544861 326.593496 326.637359 326.677902 326.716428 326.754038 326.791584 326.829638 326.868475 326.908060 326.948064 326.987881 327.026663 327.017220 327.007253 326.998120 326.990919 326.986442 326.985145 326.987132 326.992151 326.999612 327.008608 327.017960 327.026268 326.981229 326.934976 326.888739 326.843543 326.800161 326.759079 326.720477 326.684221 326.649865 326.616677 326.583666 326.549632 326.464779 326.378976 326.293494 326.209390 326.127454 326.048186 325.971762 325.898040 325.826557 325.756556 325.687017 325.616709 325.495181 325.372939 325.251258 325.131198 325.013557 324.898836 324.787221 324.678572 324.572435 324.468059 324.364433 324.260332 324.105421 323.950107 323.795668 323.643167 323.493405 323.346888 323.203804 323.064021 322.927089 322.792264 322.658542 322.524707 322.340572 322.156408 321.973495 321.792897 321.615416 321.441560 321.271522 321.105172 320.942067 320.781467 320.622378 320.463588 320.254782 320.046387 319.839700 319.635799 319.435503 319.239330 319.047482 318.859837 318.675951 318.495087 318.316242 318.138200 317.911850 317.686320 317.462819 317.242343 317.025633 316.813146 316.605035 316.401149 316.201039 316.003981 315.809017 315.614995 315.371065 315.128412 314.888489 314.652547 314.421583 314.196305 313.977102 313.764035 313.556838 313.354933 313.157460 312.963318 312.724707 312.489522 312.258927 312.033840 311.814899 311.602428 311.396426 311.196563 311.002195 310.812390 310.625967 310.441549 310.208550 309.977409 309.749325 309.525309 309.306132 309.092295 308.884009 308.681178 308.483414 308.290047 308.100159 307.912628 307.679418 307.448728 307.221810 306.999701 306.783179 306.572732 306.368533 306.170440 305.978002 305.790476 305.606868 305.425974 305.198928 304.974653 304.754378 304.539121 304.329649 304.126441 303.929672 303.739205 303.554599 303.375129 303.199819 303.027488 302.809860 302.595279 302.384963 302.179923 301.980917 301.788422 301.602608 301.423337 301.250167 301.082374 300.918987 300.758827 300.553876 300.352212 300.155045 299.963378 299.777963 299.599271 299.427468 299.262415 299.103670 298.950510 298.801965 298.656860 298.467421 298.281474 298.100221 297.924657 297.755526 297.593295 297.438127 297.289880 297.148112 297.012101 296.880879 296.753274 296.582171 296.414707 296.252047 296.095156 295.944755 295.801287 295.664904 295.535456 295.412503 295.295332 295.182993 295.074337 294.921042 294.771585 294.627242 294.489086 294.357934 294.234314 294.118442 294.010210 293.909192 293.814659 293.725609 293.640812 293.514895 293.392935 293.275849 293.164339 293.058851 292.959553 292.866323 292.778754 292.696162 292.617620 292.541993 292.467987 292.346432 292.226531 292.109594 291.996773 291.889012 291.787009 291.691189 291.601688 291.518358 291.440772 291.368252 291.299902 291.190955 291.086539 290.987897 290.896040 290.811708 290.735341 290.667063 290.606673 290.553666 290.507247 290.466370 290.429790 290.349607 290.273629 290.203007 290.138697 290.081416 290.031615 289.989456 289.954806 289.927242 289.906070 289.890357 289.878973 289.825620 289.776634 289.733180 289.696225 289.666492 289.644427 289.630184 289.623616 289.624281 289.631460 289.644196 289.661326 289.636115 289.615301 289.600044 289.591306 289.589805 289.595983 289.609989 289.631670 289.660580 289.695996 289.736955 289.782291 289.785254 289.792582 289.805430 289.824754 289.851267 289.885407 289.927318 289.976843 290.033528 290.096649 290.165232 290.238108 290.268486 290.303128 290.343188 290.389615 290.443118 290.504131 290.572793 290.648940 290.732114 290.821584 290.916371 291.015297 291.071087 291.130998 291.196200 291.267663 291.346111 291.431987 291.525434 291.626288 291.734085 291.848076 291.967262 292.090436 292.171591 292.256567 292.346416 292.441995 292.543924 292.652558 292.767970 292.889949 293.018010 293.151414 293.289205 293.430249 293.525773 293.624792 293.728697 293.838692 293.955745 294.080550 294.213494 294.354651 294.503774 294.660309 294.823422 294.992035 295.121048 295.255467 295.396299 295.544306 295.699973 295.863476 296.034675 296.213110 296.398018 296.588356 296.782846 296.980020 297.130544 297.283325 297.439430 297.599750 297.764959 297.935475 298.111443 298.292721 298.478880 298.669229 298.862833 299.058556 299.210029 299.363615 299.520462 299.681512 299.847454 300.018694 300.195333 300.377162 300.563669 300.754057 300.947281 301.142089 301.290507 301.440366 301.592797 301.748729 301.908845 302.073552 302.242954 302.416854 302.594753 302.775875 302.959194 303.143481 303.281102 303.419575 303.560037 303.703422 303.850416 304.001428 304.156567 304.315636 304.478140 304.643304 304.810102 304.977309 305.097201 305.217394 305.339032 305.463052 305.590148 305.720732 305.854919 305.992516 306.133030 306.275691 306.419477 306.563164 306.658963 306.754572 306.851140 306.949612 307.050687 307.154786 307.262028 307.372227 307.484896 307.599269 307.714329 307.828859 307.895783 307.962061 308.028810 308.096942 308.167131 308.239777 308.314990 308.392582 308.472079 308.552736 308.633572 308.713414 308.742725 308.771194 308.800148 308.830710 308.863740 308.899800 308.939126 308.981615 309.026825 309.073992 309.122055 309.169704 309.172213 309.173718 309.174950 309.176407 309.178325 309.180660 309.183079 309.184970 309.185462 309.183456 309.177668 309.166687 309.098989 309.026121 308.949511 308.870459 308.790081 308.709265 308.628639 308.548551 308.469064 308.389958 308.310754 308.230740 308.105871 307.980826 307.856931 307.735261 307.616597 307.501396 307.389775 307.281517 307.176075 307.072607 306.970011 306.866978 306.713978 306.560432 306.407526 306.256254 306.107372 305.961372 305.818452 305.678521 305.541192 305.405812 305.271485 305.137116 304.955961 304.774918 304.595215 304.417876 304.243678 304.073121 303.906403 303.743417 303.583760 303.426749 303.271456 303.116751 302.915211 302.714383 302.515500 302.319587 302.127425 301.939514 301.756058 301.576953 301.401800 301.229922 301.060396 300.892098 300.677731 300.464725 300.254310 300.047513 299.845114 299.647615 299.455218 299.267825 299.085038 298.906183 298.730340 298.556391 298.337170 298.119978 297.906040 297.696382 297.491782 297.292740 297.099458 296.911837 296.729480 296.551714 296.377622 296.206087 295.989503 295.775638 295.565746 295.360878 295.161833 294.969127 294.782976 294.603283 294.429645 294.261379 294.097546 293.937000 293.734121 293.534497 293.339220 293.149183 292.965043 292.787195 292.615761 292.450581 292.291232 292.137048 291.987156 291.840520 291.647993 291.459257 291.275857 291.099156 290.930286 290.770104 290.619162 290.477689 290.345591 290.222458 290.107590 290.000031 289.855934 289.719218 289.590894 289.471716 289.362144 289.262326 289.172084 289.090918 289.018026 288.952331 288.892526 288.837127 288.736743 288.640372 288.549099 288.463846 288.385325 288.314010 288.250108 288.193551 288.143998 288.100849 288.063271 288.030234 287.956652 287.887781 287.824808 287.768711 287.720217 287.679772 287.647518 287.623292 287.606628 287.596785 287.592773 287.593399 287.551589 287.514383 287.482929 287.458177 287.440836 287.431340 287.429831 287.436151 287.449850 287.470205 287.496250 287.526822 287.515476 287.508632 287.507434 287.512823 287.525500 287.545894 287.574140 287.610074 287.653240 287.702910 287.758111 287.817676 287.835160 287.856967 287.884232 287.917893 287.958645 288.006911 288.062820 288.126204 288.196601 288.273279 288.355259 288.441367 288.485137 288.532981 288.586032 288.645221 288.711240 288.784508 288.865150 288.952994 289.047574 289.148152 289.253746 289.363175 289.430538 289.501640 289.577575 289.659241 289.747299 289.842143 289.943882 290.052334 290.167034 290.287250 290.412020 290.540190 290.623802 290.710908 290.802767 290.900437 291.004723 291.116142 291.234897 291.360866 291.493600 291.632342 291.776056 291.923463 292.030406 292.140512 292.254548 292.373062 292.496345 292.624416 292.757008 292.893578 293.033320 293.175197 293.317979 293.460297 293.552332 293.643846 293.736170 293.830493 293.927817 294.028910 294.134279 294.244150 294.358466 294.476895 294.598846 294.723507 294.806942 294.893505 294.984439 295.080749 295.183159 295.292083 295.407606 295.529489 295.657173 295.789808 295.926289 296.065307 296.158260 296.253548 296.352298 296.455449 296.563703 296.677496 296.796976 296.921999 297.052129 297.186660 297.324644 297.464936 297.560951 297.659269 297.761054 297.867269 297.978631 298.095582 298.218264 298.346518 298.479885 298.617630 298.758768 298.902115 299.000271 299.100599 299.204266 299.312240 299.425239 299.543708 299.667789 299.797322 299.931848 300.070627 300.212672 300.356794 300.455421 300.556087 300.659965 300.768024 300.880987 300.999298 301.123101 301.252235 301.386238 301.524368 301.665635 301.808843 301.906251 302.005562 302.107954 302.214398 302.325620 302.442066 302.563879 302.690897 302.822656 302.958411 303.097167 303.237725 303.331909 303.427871 303.526806 303.629704 303.737302 303.850058 303.968121 304.091330 304.219217 304.351030 304.485760 304.622190 304.712852 304.805103 304.900066 304.998665 305.101577 305.209202 305.321651 305.438733 305.559969 305.684615 305.811688 305.940018 306.020297 306.101991 306.186446 306.274808 306.367980 306.466583 306.570929 306.681012 306.796505 306.916782 307.040941 307.167847 307.250485 307.335822 307.424956 307.518759 307.617823 307.722444 307.832597 307.947935 308.067805 308.191269 308.317141 308.444040 308.522219 308.601167 308.682029 308.765756 308.853067 308.944412 309.039950 309.139541 309.242746 309.348851 309.456894 309.565706 309.627435 309.689950 309.754447 309.821913 309.893078 309.968384 310.047963 310.131632 310.218901 310.308991 310.400867 310.493289 310.537402 310.581994 310.628252 310.677153 310.729424 310.785507 310.845538 310.909341 310.976436 311.046057 311.117186 311.188595 311.211695 311.235032 311.259793 311.286959 311.317257 311.351132 311.388721 311.429851 311.474042 311.520532 311.568303 311.616132 311.615441 311.614772 311.615314 311.618049 311.623709 311.632737 311.645276 311.661153 311.679894 311.700736 311.722668 311.744469 311.717611 311.690595 311.664614 311.640653 311.619443 311.601433 311.586767 311.575277 311.566491 311.559652 311.553753 311.547579 311.492980 311.438075 311.384041 311.331849 311.282221 311.235597 311.192117 311.151614 311.113624 311.077400 311.041953 311.006089 310.920813 310.835199 310.750506 310.667785 310.587829 310.511143 310.437918 310.368020 310.301001 310.236109 310.172327 310.108413 309.997411 309.886069 309.775407 309.666230 309.559084 309.454235 309.351650 309.250999 309.151664 309.052768 308.953211 308.851715 308.698818 308.544019 308.388613 308.233716 308.080220 307.928756 307.779672 307.633016 307.488540 307.345719 307.203772 307.061703 306.873181 306.684820 306.497868 306.313351 306.132028 305.954359 305.780491 305.610250 305.443153 305.278431 305.115065 304.951830 304.740440 304.529174 304.319224 304.111578 303.906985 303.705917 303.508554 303.314773 303.124158 302.936019 302.749422 302.563236 302.330488 302.098251 301.867726 301.639914 301.415567 301.195160 300.978873 300.766580 300.557860 300.352018 300.148112 299.945003 299.695683 299.447254 299.200914 298.957660 298.718243 298.483140 298.252530 298.026291 297.804009 297.584994 297.368313 297.152837 296.891847 296.632161 296.374973 296.121277 295.871820 295.627079 295.387234 295.152166 294.921465 294.694446 294.470186 294.247563 293.980155 293.714488 293.451750 293.192928 292.938769 292.689745 292.446037 292.207530 291.973814 291.744212 291.517807 291.293485 291.025145 290.758992 290.496205 290.237766 289.984414 289.736620 289.494562 289.258126 289.026906 288.800229 288.577184 288.356666 288.092797 287.831565 287.574146 287.321522 287.074431 286.833345 286.598445 286.369617 286.146459 285.928300 285.714231 285.503150 285.249601 284.999122 284.752865 284.511783 284.276594 284.047745 283.825399 283.609425 283.399411 283.194676 282.994311 282.797211 282.557996 282.322140 282.090804 281.864959 281.645339 281.432414 281.226369 281.027100 280.834220 280.647076 280.464781 280.286256 280.066580 279.850775 279.639991 279.435182 279.237066 279.046096 278.862438 278.685970 278.516284 278.352711 278.194348 278.040100 277.845107 277.654298 277.468807 277.289578 277.117323 276.952486 276.795233 276.645441 276.502706 276.366361 276.235509 276.109062 275.942427 275.780258 275.623683 275.473638 275.330826 275.195687 275.068381 274.948781 274.836479 274.730804 274.630858 274.535549 274.400420 274.269975 274.145332 274.027419 273.916932 273.814305 273.719691 273.632960 273.553698 273.481235 273.414667 273.352901 273.251600 273.155131 273.064605 272.980942 272.904830 272.836697 272.776691 272.724676 272.680235 272.642692 272.611141 272.584486 272.518469 272.457361 272.402265 272.354093 272.313526 272.280987 272.256619 272.240278 272.231544 272.229736 272.233943 272.243065 272.213030 272.187898 272.168758 272.156506 272.151811 272.155085 272.166460 272.185788 272.212643 272.246343 272.285974 272.330441 272.335200 272.344812 272.360399 272.382891 272.412986 272.451118 272.497439 272.551808 272.613800 272.682720 272.757633 272.837407 272.878388 272.924086 272.975498 273.033430 273.098451 273.170874 273.250731 273.337780 273.431502 273.531130 273.635679 273.743988 273.811011 273.881746 273.957322 274.038692 274.126592 274.221505 274.323646 274.432947 274.549064 274.671392 274.799090 274.931124 275.023768 275.120799 275.223323 275.332244 275.448229 275.571674 275.702689 275.841091 275.986411 276.137915 276.294635 276.455410 276.575302 276.699141 276.828003 276.962774 277.104112 277.252416 277.407808 277.570121 277.738911 277.913473 278.092869 278.275968 278.418187 278.564038 278.714603 278.870775 279.033214 279.202317 279.378199 279.560689 279.749331 279.943407 280.141964 280.343856 280.504159 280.667708 280.835586 281.008687 281.187669 281.372929 281.564580 281.762447 281.966069 282.174722 282.387446 282.603089 282.776523 282.952778 283.132941 283.317904 283.508329 283.704611 283.906861 284.114900 284.328266 284.546228 284.767819 284.991881 285.173075 285.356638 285.543657 285.735029 285.931416 286.133214 286.340533 286.553194 286.770728 286.992401 287.217241 287.444083 287.627165 287.812154 288.000157 288.192084 288.388608 288.590135 288.796780 289.008363 289.224414 289.444191 289.666708 289.890784 290.071136 290.252885 290.437083 290.624592 290.816037 291.011782 291.211911 291.416223 291.624238 291.835220 292.048205 292.262048 292.429927 292.598719 292.769655 292.943775 293.121888 293.304534 293.491961 293.684112 293.880631 294.080878 294.283953 294.488739 294.650147 294.813164 294.978834 295.147983 295.321181 295.498712 295.680563 295.866412 296.055646 296.247381 296.440495 296.633677 296.779609 296.925352 297.071986 297.220409 297.371292 297.525048 297.681809 297.841419 298.003440 298.167164 298.331648 298.495750 298.613584 298.731005 298.849143 298.968928 299.091044 299.215904 299.343624 299.474020 299.606613 299.740652 299.875139 300.008880 300.095145 300.180580 300.266313 300.353272 300.442147 300.533354 300.627019 300.722968 300.820736 300.919584 301.018534 301.116405 301.166635 301.215734 301.264837 301.314884 301.366569 301.420318 301.476263 301.534237 301.593781 301.654165 301.714416 301.773362 301.784419 301.794139 301.803667 301.813949 301.825689 301.839320 301.854982 301.872516 301.891472 301.911127 301.930517 301.948478 301.918447 301.886979 301.855227 301.824146 301.794448 301.766575 301.740675 301.716599 301.693904 301.671878 301.649565 301.625814 301.555042 301.482798 301.410189 301.338130 301.267300 301.198115 301.130712 301.064941 301.000375 300.936328 300.871891 300.805969 300.690075 300.572987 300.456073 300.340496 300.227163 300.116688 300.009360 299.905131 299.803614 299.704100 299.605583 299.506799 299.365263 299.222840 299.080159 298.937615 298.795348 298.653222 298.510827 298.367490 298.222296 298.074123 297.921690 297.763611 297.549172 297.329204 297.105187 296.878493 296.650331 296.421705 296.193376 295.965843 295.739333 295.513800 295.288944 295.064234 294.798200 294.533168 294.270486 294.011245 293.756239 293.505938 293.260477 293.019654 292.782950 292.549552 292.318393 292.088210 291.810886 291.534470 291.260131 290.988853 290.721397 290.458266 290.199689 289.945614 289.695710 289.449392 289.205841 288.964050 288.679356 288.396660 288.117173 287.841912 287.571652 287.306903 287.047883 286.794519 286.546452 286.303053 286.063460 285.826617 285.547048 285.270415 284.997922 284.730581 284.469165 284.214176 283.965834 283.724061 283.488497 283.258513 283.033246 282.811640 282.548369 282.288934 282.034532 281.786168 281.544606 281.310343 281.083592 280.864271 280.652016 280.446194 280.245938 280.050188 279.813750 279.581976 279.356053 279.136974 278.925496 278.722106 278.527009 278.340114 278.161051 277.989179 277.823626 277.663326 277.461961 277.266047 277.076830 276.895354 276.722420 276.558548 276.403960 276.258570 276.121988 275.993541 275.872304 275.757140 275.605777 275.460259 275.321481 275.190154 275.066771 274.951593 274.844636 274.745680 274.654283 274.569808 274.491458 274.418326 274.300382 274.188634 274.084952 273.991059 273.908465 273.838416 273.781856 273.739392 273.711283 273.697439 273.697429 273.710510 273.697775 273.698122 273.712286 273.740687 273.783407 273.840178 273.910383 273.993070 274.086984 274.190605 274.302203 274.419899 274.492709 274.570621 274.654532 274.745228 274.843337 274.949293 275.063305 275.185348 275.315153 275.452220 275.595831 275.745081 275.857981 275.976733 276.102466 276.236096 276.378289 276.529424 276.689582 276.858535 277.035754 277.220437 277.411533 277.607794 277.762786 277.922734 278.088696 278.261540 278.441897 278.630136 278.826341 279.030304 279.241535 279.459276 279.682534 279.910121 280.096789 280.287626 280.483687 280.685836 280.894702 281.110649 281.333757 281.563814 281.800324 282.042525 282.289417 282.539806 282.748313 282.960149 283.176369 283.397838 283.625184 283.858773 284.098683 284.344701 284.596331 284.852806 285.113124 285.376088 285.596165 285.818718 286.044809 286.275306 286.510843 286.751788 286.998222 287.249935 287.506431 287.766944 288.030473 288.295820 288.518835 288.743423 288.970565 289.201055 289.435465 289.674114 289.917054 290.164064 290.414659 290.668110 290.923472 291.179629 291.387203 291.595846 291.806976 292.021807 292.241292 292.466077 292.696466 292.932400 293.173455 293.418847 293.667457 293.917867 294.130401 294.343457 294.557213 294.771595 294.986264 295.200605 295.413744 295.624564 295.831744 296.033798 296.229132 296.416107 296.540731 296.656954 296.766397 296.870637 296.971145 297.069228 297.165986 297.262277 297.358695 297.455557 297.552912 297.650550 297.709554 297.770036 297.833408 297.900783 297.972938 298.050288 298.132877 298.220382 298.312134 298.407151 298.504184 298.601773 298.649269 298.696965 298.745987 298.797282 298.851583 298.909369 298.970849 299.035954 299.104338 299.175394 299.248284 299.321977 299.351104 299.381201 299.413487 299.448982 299.488460 299.532419 299.581062 299.634289 299.691704 299.752632 299.816155 299.881151 299.900336 299.921092 299.944654 299.972050 300.004066 300.041208 300.083686 300.131402 300.183963 300.240694 300.300674 300.362780 300.379436 300.398323 300.420684 300.447558 300.479739 300.517737 300.561765 300.611727 300.667227 300.727590 300.791887 300.858990 300.881018 300.905957 300.935058 300.969367 301.009680 301.056511 301.110073 301.170269 301.236698 301.308677 301.385272 301.465342 301.499713 301.537710 301.580646 301.629622 301.685479 301.748766 301.819716 301.898237 301.983915 302.076039 302.173629 302.275481 302.335244 302.399092 302.468072 302.543031 302.624578 302.713060 302.808552 302.910858 303.019521 303.133855 303.252979 303.375864 303.449593 303.527874 303.612542 303.705259 303.807450 303.920256 304.044491 304.180616 304.328732 304.488582 304.659570 304.840790 304.987804 305.145057 305.313488 305.493731 305.686080 305.890472 306.106481 306.333325 306.569897 306.814796 307.066382 307.322837 307.529735 307.740725 307.956889 308.179158 308.408271 308.644725 308.888757 309.140322 309.399097 309.664486 309.935650 310.211539 310.444544 310.682459 310.926558 311.177885 311.437208 311.704988 311.981354 312.266099 312.558686 312.858273 313.163745 313.473766 313.736843 314.004314 314.277404 314.557121 314.844210 315.139121 315.441987 315.752612 316.070482 316.394784 316.724438 317.058146 317.345034 317.635855 317.931831 318.233973 318.543024 318.859431 319.183319 319.514484 319.852401 320.196244 320.544917 320.897105 321.201519 321.509310 321.821705 322.139717 322.464088 322.795263 323.133363 323.478177 323.829171 324.185506 324.546074 324.909544 325.224211 325.541632 325.863038 326.189445 326.521599 326.859943 327.204597 327.555344 327.911643 328.272646 328.637232 329.004057 329.321539 329.641076 329.963881 330.290944 330.622993 330.960454 331.303433 331.651705 332.004728 332.361655 332.721376 333.082563 333.391516 333.701924 334.015151 334.332336 334.654338 334.981695 335.314598 335.652874 335.995993 336.343086 336.692974 337.044216 337.346111 337.648816 337.953281 338.260209 338.570021 338.882828 339.198419 339.516258 339.835507 340.155051 340.473543 340.789459 341.046927 341.301701 341.555228 341.808782 342.063407 342.319872 342.578640 342.839850 343.103314 343.368529 343.634704 343.900797 344.115827 344.331083 344.547946 344.767538 344.990670 345.217809 345.449059 345.684154 345.922476 346.163074 346.404711 346.645915 346.831475 347.016387 347.201943 347.389213 347.579001 347.771798 347.967770 348.166740 348.368199 348.571327 348.775025 348.977967 349.126568 349.274388 349.422760 349.572787 349.725292 349.880781 350.039419 350.201023 350.365072 350.530722 350.696849 350.862097 350.972087 351.081165 351.190677 351.301738 351.415181 351.531522 351.650933 351.773240 351.897923 352.024144 352.150782 352.276484 352.346676 352.415918 352.485570 352.556758 352.630325 352.706795 352.786350 352.868820 352.953693 353.040134 353.127027 353.213020 353.243389 353.272866 353.302823 353.334397 353.368440 353.405485 353.445722 353.488987 353.534774 353.582254 353.630314 353.677607 353.669436 353.660519 353.652230 353.645708 353.641808 353.641067 353.643676 353.649478 353.657973 353.668341 353.679479 353.690053 353.644828 353.599125 353.554364 353.511730 353.472119 353.436104 353.403905 353.375386 353.350056 353.327096 353.305392 353.283587 353.207297 353.130868 353.055613 352.982606 352.912631 352.846153 352.783290 352.723813 352.667156 352.612440 352.558511 352.503998 352.393226 352.281954 352.171632 352.063485 351.958468 351.857221 351.760045 351.666894 351.577377 351.490784 351.406114 351.322128 351.184542 351.047847 350.913478 350.782621 350.656172 350.534692 350.418391 350.307120 350.200378 350.097338 349.996889 349.897681 349.744417 349.592470 349.443249 349.297927 349.157396 349.022226 348.892642 348.768521 348.649392 348.534465 348.422668 348.312693 348.149775 347.988804 347.831199 347.678139 347.530519 347.388911 347.253541 347.124282 347.000661 346.881883 346.766869 346.654306 346.489317 346.326898 346.168466 346.015200 345.867996 345.727425 345.593712 345.466730 345.346007 345.230747 345.119872 345.012067 344.852490 344.696101 344.544314 344.398308 344.258976 344.126887 344.002265 343.884982 343.774563 343.670212 343.570848 343.475155 343.328313 343.185254 343.047388 342.915891 342.791653 342.675240 342.566873 342.466421 342.373407 342.