New loadshape.LS_PhaseA npts=17280 sinterval=5 pmult=(360.000000 359.870530 359.743341 359.619633 359.500364 359.386207 359.277507 359.174266 359.076134 358.982419 358.892116 358.803942 358.716394 358.572407 358.428958 358.287437 358.149013 358.014571 357.884683 357.759572 357.639112 357.522826 357.409912 357.299280 357.189596 357.024989 356.861460 356.700444 356.543128 356.390405 356.242827 356.100593 355.963534 355.831126 355.702511 355.576541 355.451827 355.272057 355.093593 354.917850 354.746002 354.578935 354.417205 354.261019 354.110223 353.964316 353.822467 353.683560 353.546240 353.354823 353.165078 352.978420 352.796025 352.618781 352.447246 352.281631 352.121789 351.967222 351.817109 351.670339 351.525567 351.327279 351.131082 350.938392 350.750384 350.567947 350.391644 350.221686 350.057930 349.899885 349.746733 349.597372 349.450462 349.250654 349.053397 348.860105 348.671954 348.489833 348.314305 348.145584 347.983529 347.827653 347.677144 347.530902 347.387595 347.192365 347.000154 346.812354 346.630122 346.454330 346.285529 346.123926 345.969379 345.821404 345.679198 345.541680 345.407535 345.220932 345.037898 344.859916 344.688229 344.523790 344.367218 344.218774 344.078348 343.945470 343.819326 343.698794 343.582498 343.416882 343.255347 343.099096 342.949083 342.805972 342.670099 342.541462 342.419717 342.304193 342.193918 342.087666 341.984009 341.826375 341.671437 341.520706 341.375492 341.236845 341.105518 340.981935 340.866180 340.757996 340.656805 340.561734 340.471668 340.333424 340.200540 340.074472 339.956419 339.847274 339.747587 339.657545 339.576967 339.505313 339.441714 339.385011 339.333805 339.232400 339.136488 339.047454 338.966452 338.894356 338.831721 338.778763 338.735346 338.700996 338.674917 338.656031 338.643025 338.581368 338.525676 338.477347 338.437538 338.407126 338.386660 338.376344 338.376029 338.385219 338.403093 338.428546 338.460236 338.443180 338.432405 338.429300 338.435017 338.450425 338.476064 338.512132 338.558470 338.614570 338.679603 338.752451 338.831758 338.862404 338.899527 338.944509 338.998497 339.062349 339.136601 339.221438 339.316690 339.421842 339.536047 339.658176 339.786859 339.866789 339.953262 340.047653 340.151101 340.264458 340.388247 340.522647 340.667477 340.822205 340.985975 341.157639 341.335812 341.464225 341.599146 341.741984 341.893912 342.055806 342.228208 342.411302 342.604902 342.808462 343.021093 343.241606 343.468561 343.647798 343.833207 344.025994 344.227133 344.437317 344.656932 344.886036 345.124360 345.371316 345.626031 345.887383 346.154057 346.366930 346.585568 346.811765 347.047103 347.292886 347.550090 347.819326 348.100816 348.394387 348.699485 349.015198 349.340302 349.621986 349.912910 350.214194 350.526648 350.850727 351.186503 351.533654 351.891469 352.258865 352.634429 353.016465 353.403057 353.733855 354.068468 354.408123 354.753852 355.106441 355.466384 355.833853 356.208689 356.590396 356.978163 357.370893 357.767246 358.111925 358.460210 358.813474 359.172835 359.539107 359.912757 360.293882 360.682200 361.077063 361.477474 361.882133 362.289490 362.641297 362.995540 363.353560 363.716455 364.085025 364.459735 364.840688 365.227618 365.619897 366.016555 366.416325 366.817687 367.162833 367.509351 367.858589 368.211653 368.569350 368.932147 369.300151 369.673097 370.050353 370.430950 370.813613 371.196820 371.522451 371.848412 372.176067 372.506528 372.840612 373.178795 373.521188 373.867530 374.217191 374.569202 374.922290 375.274930 375.568718 375.861863 376.155741 376.451478 376.749902 377.051499 377.356388 377.664315 377.974656 378.286447 378.598416 378.909043 379.161172 379.411710 379.661959 379.912985 380.165560 380.420130 380.676790 380.935281 381.194995 381.455005 381.714100 381.970841 382.163026 382.353123 382.542862 382.733716 382.926831 383.122970 383.322474 383.525246 383.730740 383.937982 384.145596 384.351861 384.503933 384.653444 384.800938 384.946654 385.090496 385.232021 385.370443 385.504649 385.633237 385.754562 385.866798 385.968018 385.991716 386.004387 386.007961 386.004265 385.994945 385.981406 385.964761 385.945798 385.924960 385.902340 385.877698 385.850485 385.768836 385.685810 385.603135 385.522192 385.443961 385.368992 385.297386 385.228802 385.162473 385.097250 385.031654 384.963943 384.831202 384.696061 384.559971 384.424152 384.289541 384.156749 384.026038 383.897311 383.770117 383.643673 383.516902 383.388482 383.200846 383.011789 382.822848 382.635304 382.450134 382.267966 382.089055 381.913278 381.740140 381.568799 381.398108 381.226668 380.995405 380.763562 380.532681 380.304052 380.078654 379.857121 379.639714 379.426314 379.216434 379.009237 378.803582 378.598077 378.333756 378.069767 377.807654 377.548706 377.293905 377.043885 376.798911 376.558864 376.323260 376.091266 375.861745 375.633309 375.347134 375.062231 374.780140 374.502146 374.229228 373.962019 373.700779 373.445392 373.195370 372.949883 372.707794 372.467717 372.169425 371.873412 371.581299 371.294450 371.013906 370.740349 370.474074 370.214974 369.962551 369.715939 369.473945 369.235103 368.944489 368.656771 368.373129 368.094500 367.821542 367.554608 367.293736 367.038657 366.788813 366.543396 366.301390 366.061634 365.759399 365.460735 365.168078 364.883670 364.609479 364.347135 364.097871 363.862490 363.641346 363.434340 363.240940 363.060211 362.841945 362.636422 362.444618 362.267106 362.104021 361.955047 361.819420 361.695945 361.583038 361.478774 361.380962 361.287218 361.132100 360.979873 360.831725 360.688699 360.551632 360.421115 360.297452 360.180644 360.070385 359.966070 359.866821 359.771524 359.626635 359.486092 359.351373 359.223688 359.103922 358.992598 358.889855 358.795439 358.708720 358.628712 358.554123 358.483406 358.357695 358.235723 358.118873 358.008284 357.904799 357.808923 357.720802 357.640214 357.566580 357.498986 357.436220 357.376830 357.263904 357.154290 357.049359 356.950241 356.857766 356.772434 356.694385 356.623394 356.558882 356.499934 356.445344 356.393662 356.288273 356.185723 356.087372 355.994341 355.907456 355.827210 355.753741 355.686825 355.625884 355.570008 355.517996 355.468404 355.364917 355.263781 355.166352 355.073744 354.986779 354.905949 354.831394 354.762891 354.699867 354.641419 354.586354 354.533240 354.428040 354.324623 354.224224 354.127851 354.036237 353.949804 353.868647 353.792533 353.720903 353.652904 353.587426 353.523148 353.399895 353.278329 353.160228 353.047119 352.940209 352.840329 352.747889 352.662859 352.584759 352.512672 352.445269 352.380856 352.272165 352.164960 352.059419 351.955411 351.852479 351.749838 351.646388 351.540747 351.431289 351.316204 351.193564 351.061401 350.854728 350.638587 350.414980 350.185861 349.953069 349.718256 349.482835 349.247932 349.014366 348.782629 348.552890 348.325012 348.053761 347.785990 347.523410 347.267368 347.018804 346.778218 346.545669 346.320775 346.102743 345.890406 345.682284 345.476653 345.213847 344.953154 344.695900 344.443205 344.195932 343.954656 343.719634 343.490803 343.267777 343.049870 342.836130 342.625383 342.365205 342.108292 341.856067 341.609719 341.370154 341.137956 340.913365 340.696272 340.486224 340.282451 340.083899 339.889282 339.644234 339.403287 339.167859 338.939139 338.718027 338.505105 338.300613 338.104439 337.916131 337.734916 337.559741 337.389322 337.169402 336.954392 336.745703 336.544517 336.351729 336.167915 335.993309 335.827795 335.670916 335.521896 335.379676 335.242967 335.057591 334.877862 334.705182 334.540722 334.385369 334.239692 334.103914 333.977912 333.861221 333.753056 333.652350 333.557805 333.413303 333.275176 333.144930 333.023828 332.912836 332.812578 332.723317 332.644935 332.576946 332.518513 332.468488 332.425461 332.339732 332.260541 332.188837 332.125351 332.070563 332.024682 331.987647 331.959130 331.938563 331.925171 331.918020 331.916074 331.857003 331.804641 331.761522 331.730018 331.712258 331.710056 331.724848 331.757652 331.809038 331.879117 331.967552 332.073578 332.152758 332.249456 332.364376 332.497796 332.649546 332.818998 333.005075 333.206282 333.420747 333.646282 333.880451 334.120662 334.302930 334.489589 334.681618 334.879892 335.085131 335.297845 335.518304 335.746514 335.982205 336.224839 336.473625 336.727550 336.937162 337.152237 337.374131 337.603939 337.842445 338.090084 338.346917 338.612630 338.886542 339.167632 339.454579 339.745819 339.984761 340.227657 340.475757 340.730081 340.991364 341.260027 341.536143 341.819440 342.109299 342.404781 342.704666 343.007494 343.258675 343.512556 343.770386 344.033183 344.301682 344.576299 344.857110 345.143836 345.435859 345.732239 346.031751 346.332935 346.581118 346.830730 347.083025 347.339022 347.599461 347.864761 348.134999 348.409901 348.688851 348.970912 349.254861 349.539241 349.769308 349.999577 350.231310 350.465533 350.702993 350.944118 351.188993 351.437351 351.688583 351.941758 352.195664 352.448850 352.648816 352.847736 353.046749 353.246775 353.448469 353.652187 353.857973 354.065549 354.274330 354.483443 354.691769 354.897987 355.042119 355.184595 355.327197 355.471463 355.618611 355.769479 355.924484 356.083595 356.246317 356.411708 356.578396 356.744627 356.865038 356.983161 357.098945 357.212019 357.321690 357.426937 357.526439 357.618602 357.701613 357.773500 357.832199 357.875641 357.837650 357.784403 357.717972 357.640423 357.553729 357.459708 357.359953 357.255789 357.148236 357.037994 356.925432 356.810602 356.649959 356.488885 356.329134 356.172081 356.018671 355.869400 355.724301 355.582961 355.444541 355.307825 355.171277 355.033114 354.832878 354.630578 354.427537 354.224879 354.023476 353.823916 353.626479 353.431122 353.237490 353.044927 352.852516 352.659115 352.412506 352.165237 351.918757 351.674284 351.432749 351.194762 350.960591 350.730151 350.503016 350.278437 350.055387 349.832604 349.555511 349.278914 349.004270 348.732803 348.465451 348.202832 347.945218 347.692532 347.444354 347.199944 346.958279 346.718104 346.424916 346.133459 345.845191 345.561339 345.282843 345.010320 344.744048 344.483950 344.229607 343.980281 343.734952 343.492366 343.198097 342.906811 342.619964 342.338779 342.064192 341.796820 341.536934 341.284457 341.038966 340.799720 340.565695 340.335637 340.053290 339.775237 339.503035 339.237999 338.981144 338.733145 338.494311 338.264575 338.043498 337.830293 337.623862 337.422846 337.177207 336.936671 336.702266 336.474794 336.254807 336.042582 335.838121 335.641154 335.451168 335.267436 335.089070 334.915069 334.683359 334.457593 334.240313 334.033898 333.840480 333.661873 333.499514 333.354425 333.227183 333.117913 333.026297 332.951599 332.849001 332.763380 332.695521 332.645790 332.614107 332.599941 332.602317 332.619843 332.650754 332.692963 332.744144 332.801803 332.802464 332.808145 332.819890 332.838633 332.865143 332.899981 332.943458 332.995621 333.056237 333.124806 333.200574 333.282564 333.321341 333.366767 333.420238 333.482894 333.555561 333.638717 333.732470 333.836555 333.950340 334.072856 334.202836 334.338773 334.424467 334.515891 334.614334 334.720851 334.836217 334.960888 335.094978 335.238252 335.390135 335.549732 335.715865 335.887122 336.009301 336.136453 336.269854 336.410549 336.559302 336.716559 336.882425 337.056657 337.238668 337.427554 337.622130 337.820976 337.969868 338.122857 338.281214 338.445974 338.617897 338.797421 338.984646 339.179320 339.380855 339.588339 339.800581 340.016156 340.180813 340.348620 340.520843 340.698517 340.882397 341.072919 341.270181 341.473930 341.683574 341.898200 342.116616 342.337395 342.507874 342.680446 342.856283 343.036336 343.221287 343.411517 343.607086 343.807728 344.012859 344.221602 344.432825 344.645183 344.800718 344.957653 345.117608 345.281965 345.451798 345.627822 345.810356 345.999301 346.194134 346.393920 346.597343 346.802748 346.962481 347.122832 347.284118 347.446371 347.609306 347.772322 347.934502 348.094641 348.251278 348.402746 348.547235 348.682861 348.747217 348.802633 348.850926 348.893846 348.932995 348.969771 349.005319 349.040492 349.075830 349.111551 349.147561 349.183472 349.172834 349.163308 349.156487 349.153626 349.155599 349.162868 349.175471 349.193027 349.214759 349.239527 349.265886 349.292148 349.259841 349.227028 349.194993 349.164816 349.137317 349.113023 349.092146 349.074567 349.059850 349.047250 349.035759 349.024140 348.959698 348.895268 348.832229 348.771727 348.714624 348.661467 348.612457 348.567448 348.525952 348.487162 348.449989 348.413111 348.322111 348.231481 348.142605 348.056638 347.974451 347.896596 347.823283 347.754371 347.689379 347.627506 347.567670 347.508556 347.395751 347.283757 347.173964 347.067534 346.965342 346.867944 346.775557 346.688044 346.604929 346.525415 346.448424 346.372647 346.243687 346.116038 345.991096 345.870023 345.753700 345.642685 345.537197 345.437102 345.341927 345.250877 345.162877 345.076620 344.936801 344.798877 344.664299 344.534278 344.409738 344.291271 344.179118 344.073156 343.972905 343.877555 343.785997 343.696876 343.557949 343.421309 343.288150 343.159439 343.035873 342.917854 342.805475 342.698519 342.596473 342.498561 342.403781 342.310960 342.161949 342.015688 341.874119 341.738987 341.611771 341.493633 341.385376 341.287421 341.199796 341.122147 341.053759 340.993591 340.892010 340.798703 340.714753 340.640916 340.577589 340.524781 340.482115 340.448826 340.423796 340.405588 340.392501 340.382636 340.317220 340.254344 340.195219 340.140886 340.092162 340.049596 340.013447 339.983661 339.959880 339.941448 339.927444 339.916721 339.857458 339.801726 339.750915 339.706167 339.668329 339.637914 339.615081 339.599629 339.591004 339.588323 339.590418 339.595884 339.549626 339.506676 339.468370 339.435810 339.409821 339.390906 339.379229 339.374606 339.376514 339.384110 339.396272 339.411645 339.376180 339.343905 339.316151 339.294018 339.278323 339.269567 339.267911 339.273167 339.284811 339.301997 339.323601 339.348268 339.322000 339.298768 339.279897 339.266483 339.259341 339.258969 339.265526 339.278823 339.298331 339.323207 339.352325 339.384328 339.365268 339.349062 339.337034 339.330277 339.329604 339.335512 339.348157 339.367351 339.392564 339.422953 339.457392 339.494525 339.481470 339.471022 339.464444 339.462774 339.466778 339.476916 339.493321 339.515794 339.543812 339.576552 339.612926 339.651633 339.636508 339.623960 339.615531 339.612528 339.615960 339.626497 339.644433 339.669670 339.701724 339.739732 339.782491 339.828501 339.828137 339.830235 339.835512 339.844419 339.857108 339.873412 339.892843 339.914606 339.937618 339.960555 339.981899 340.000000 339.955977 339.908723 339.859895 339.811020 339.763432 339.718221 339.676193 339.637844 339.603348 339.572563 339.545048 339.520094 339.448887 339.381051 339.318095 339.261233 339.211333 339.168891 339.134012 339.106409 339.085425 339.070056 339.059006 339.050740 338.988882 338.929583 338.874156 338.823695 338.779031 338.740694 338.708891 338.683498 338.664061 338.649823 338.639754 338.632598 338.575596 338.521614 338.472012 338.427922 338.390196 338.359369 338.335636 338.318846 338.308509 338.303820 338.303692 338.306808 338.259292 338.215065 338.175488 338.141693 338.114527 338.094524 338.081878 338.076434 338.077701 338.084867 338.096842 338.112306 338.077332 338.045884 338.019319 337.998765 337.985069 337.978759 337.980027 337.988713 338.004321 338.026035 338.052760 338.083167 338.063273 338.047087 338.035964 338.031028 338.033121 338.042768 338.060153 338.085114 338.117147 338.155430 338.198860 338.246103 338.241970 338.241722 338.246774 338.258305 338.277202 338.304027 338.338983 338.381912 338.432298 338.489290 338.551735 338.618234 338.637204 338.659917 338.687470 338.720740 338.760340 338.806590 338.859513 338.918830 338.983978 339.054141 339.128291 339.205241 339.226112 339.250602 339.280723 339.318294 339.364876 339.421711 339.489684 339.569287 339.660612 339.763354 339.876826 340.000000 340.084214 340.178052 340.282480 340.398121 340.525218 340.663620 340.812772 340.971728 341.139184 341.313515 341.492838 341.675076 341.800349 341.927563 342.057844 342.192160 342.331268 342.475671 342.625588 342.780936 342.941331 343.106099 343.274298 343.444763 343.565942 343.689553 343.816941 343.949202 344.087135 344.231201 344.381503 344.537780 344.699415 344.865459 345.034674 345.205582 345.322568 345.441043 345.562296 345.687383 345.817078 345.951837 346.091776 346.236659 346.385909 346.538633 346.693649 346.849548 346.951909 347.055016 347.160158 347.268395 347.380503 347.496941 347.617827 347.742930 347.871677 348.003176 348.136253 348.269501 348.348523 348.427593 348.508006 348.590824 348.676832 348.766492 348.859929 348.956917 349.056891 349.158966 349.261975 349.364521 349.412254 349.459420 349.507320 349.557026 349.609327 349.664697 349.723267 349.784821 349.848803 349.914339 349.980274 350.045220 350.056873 350.067355 350.077864 350.089377 350.102604 350.117958 350.135537 350.155116 350.176160 350.197849 350.219111 350.238674 350.197957 350.156026 350.114627 350.075263 350.039125 350.007038 349.979419 349.956252 349.937085 349.921035 349.906819 349.892795 349.833028 349.771981 349.709826 349.646429 349.581340 349.513789 349.442700 349.366723 349.284271 349.193582 349.092779 348.979950 348.791472 348.591059 348.380695 348.162324 347.937777 347.708707 347.476532 347.242395 347.007137 346.771280 346.535028 346.298290 346.016933 345.736743 345.459425 345.186327 344.918395 344.656146 344.399661 344.148592 343.902184 343.659321 343.418575 343.178280 342.879944 342.581747 342.285018 341.990882 341.700217 341.413615 341.131359 340.853417 340.579441 340.308793 340.040571 339.773655 339.456699 339.141390 338.829155 338.521193 338.218425 337.921455 337.630550 337.345635 337.066300 336.791821 336.521196 336.253200 335.934550 335.618767 335.307277 335.001276 334.701683 334.409101 334.123797 333.845694 333.574383 333.309138 333.048960 332.792624 332.486969 332.185385 331.889293 331.599880 331.318060 331.044430 330.779251 330.522441 330.273586 330.031956 329.796548 329.566130 329.287649 329.014370 328.747702 328.488822 328.238632 327.997719 327.766335 327.544390 327.331457 327.126799 326.929403 326.738029 326.497260 326.262823 326.036255 325.818847 325.611597 325.415166 325.229848 325.055562 324.891860 324.737939 324.592686 324.454726 324.276612 324.105272 323.941553 323.786089 323.639279 323.501267 323.371952 323.250992 323.137838 323.031765 322.931928 322.837411 322.685242 322.540304 322.405396 322.283178 322.176086 322.086241 322.015392 321.964859 321.935496 321.927679 321.941295 321.975769 321.990286 322.025623 322.082323 322.160459 322.259626 322.378931 322.517023 322.672119 322.842061 323.024382 323.216388 323.415245 323.556090 323.701801 323.853256 324.011266 324.176519 324.349529 324.530603 324.719812 324.916974 325.121662 325.333208 325.550734 325.727384 325.910463 326.101310 326.301006 326.510318 326.729663 326.959092 327.198280 327.446538 327.702843 327.965874 328.234074 328.451852 328.674428 328.903009 329.138578 329.381844 329.633203 329.892722 330.160123 330.434797 330.715824 331.002004 331.291912 331.532488 331.776538 332.025263 332.279642 332.540379 332.807869 333.082174 333.363014 333.649777 333.941539 334.237101 334.535033 334.782228 335.031536 335.284164 335.541090 335.803021 336.070354 336.343154 336.621144 336.903714 337.189944 337.478637 337.768367 338.005976 338.244377 338.484783 338.728183 338.975291 339.226511 339.481916 339.741239 340.003876 340.268917 340.535173 340.801228 341.017042 341.232266 341.447944 341.664910 341.883748 342.104764 342.327969 342.553077 342.779515 343.006449 343.232818 343.457377 343.619779 343.781046 343.943106 344.107642 344.276011 344.449179 344.627670 344.811532 345.000316 345.193085 345.388425 345.584492 345.741059 345.895866 346.048307 346.197433 346.341959 346.480285 346.610531 346.730590 346.838186 346.930958 347.006532 347.062622 347.030240 346.978401 346.909421 346.825704 346.729643 346.623542 346.509539 346.389543 346.265182 346.137770 346.008283 345.877352 345.707097 345.537939 345.371758 345.209999 345.053634 344.903142 344.758507 344.619232 344.484377 344.352610 344.222272 344.091455 343.898830 343.705102 343.511550 343.319272 343.129135 342.941743 342.757409 342.576147 342.397674 342.221424 342.046579 341.872108 341.647879 341.424454 341.203288 340.985604 340.772346 340.564145 340.361294 340.163741 339.971097 339.782662 339.597454 339.414266 339.179521 338.947072 338.718381 338.494679 338.276918 338.065733 337.861421 337.663933 337.472882 337.287566 337.107004 336.929987 336.702812 336.479456 336.261384 336.049827 335.845739 335.649752 335.462162 335.282916 335.111622 334.947570 334.789772 334.637008 334.435431 334.239147 334.049616 333.868066 333.695444 333.532375 333.379145 333.235692 333.101612 332.976182 332.858399 332.747027 332.584848 332.429477 332.282550 332.145451 332.019260 331.904702 331.802124 331.711479 331.632329 331.563867 331.504956 331.454177 331.364457 331.282186 331.208112 331.142767 331.086451 331.039226 331.000917 330.971140 330.949324 330.934762 330.926660 330.924196 330.859741 330.803419 330.758537 330.728281 330.715618 330.723196 330.753262 330.807597 330.887469 330.993597 331.126146 331.284729 331.430420 331.602096 331.800117 332.024294 332.273883 332.547596 332.843625 333.159699 333.493143 333.840959 334.199928 334.566709 334.870695 335.179898 335.495124 335.817151 336.146671 336.484233 336.830203 337.184726 337.547711 337.918822 338.297484 338.682904 339.027793 339.380025 339.741016 340.111900 340.493472 340.886157 341.289981 341.704574 342.129174 342.562661 343.003602 343.450307 343.843850 344.242669 344.648006 345.060868 345.481978 345.911731 346.350171 346.796988 347.251519 347.712773 348.179466 348.650076 349.068795 349.491086 349.918189 350.351107 350.790555 351.236922 351.690248 352.150212 352.616144 353.087042 353.561614 354.038325 354.461130 354.885722 355.313342 355.744995 356.181398 356.622941 357.069663 357.521242 357.977006 358.435951 358.896781 359.357959 359.763223 360.168491 360.575012 360.983801 361.395582 361.810753 362.229358 362.651084 363.075262 363.500892 363.926684 364.351104 364.721020 365.089067 365.456322 365.823637 366.191604 366.560514 366.930349 367.300773 367.671147 368.040549 368.407819 368.771599 369.067874 369.361277 369.653811 369.947218 370.242897 370.541834 370.844547 371.151046 371.460823 371.772847 372.085590 372.397064 372.664234 372.927452 373.186072 373.439088 373.685137 373.922522 374.149246 374.363072 374.561579 374.742250 374.902553 375.040039 375.081566 375.100231 375.098453 375.078732 375.043558 374.995318 374.936225 374.868241 374.793034 374.711934 374.625913 374.535581 374.400355 374.263413 374.126715 373.991765 373.859564 373.730597 373.604822 373.481691 373.360186 373.238874 373.115974 372.989446 372.794239 372.594702 372.392169 372.187782 371.982438 371.776754 371.571040 371.365285 371.159163 370.952052 370.743058 370.531066 370.262854 369.992062 369.720210 369.448574 369.178137 368.909548 368.643098 368.378715 368.115973 367.854111 367.592078 367.328581 367.006962 366.684156 366.361694 366.040864 365.722659 365.407738 365.096404 364.788593 364.483889 364.181542 363.880509 363.579509 363.221968 362.864755 362.509406 362.157214 361.809176 361.465954 361.127854 360.794819 360.466435 360.141955 359.820343 359.500319 359.125422 358.752414 358.382829 358.017957 357.658792 357.305994 356.959867 356.620350 356.287028 355.959154 355.635688 355.315350 354.939225 354.566656 354.199315 353.838619 353.485670 353.141210 352.805596 352.478784 352.160338 351.849452 351.544987 351.245526 350.900653 350.560351 350.225574 349.897045 349.575236 349.260352 348.952331 348.650862 348.355406 348.065245 347.779528 347.497330 347.151957 346.812246 346.481210 346.161714 345.856378 345.567497 345.296963 345.046219 344.816213 344.607387 344.419671 344.252502 344.062734 343.893601 343.745727 343.619242 343.513764 343.428402 343.361773 343.312043 343.276981 343.254029 343.240392 343.233127 343.163859 343.098997 343.039517 342.986323 342.940187 342.901701 342.871235 342.848911 342.834589 342.827866 342.828093 342.834394 342.797621 342.767525 342.745563 342.732915 342.730431 342.738594 342.757499 342.786848 342.825960 342.873804 342.929038 342.990072 342.998735 343.012923 343.033942 343.062860 343.100456 343.147184 343.203148 343.268097 343.341430 343.422222 343.509257 343.601084 343.642436 343.688413 343.740305 343.799162 343.865750 343.940510 344.023534 344.114561 344.212984 344.317868 344.427994 344.541906 344.604517 344.670728 344.741815 344.818818 344.902492 344.993269 345.091235 345.196126 345.307327 345.423905 345.544639 345.668073 345.739303 345.813040 345.890550 345.972868 346.060744 346.154606 346.254540 346.360278 346.471210 346.586404 346.704643 346.824479 346.893077 346.962980 347.035345 347.111103 347.190919 347.275158 347.363862 347.456750 347.553229 347.652410 347.753155 347.854119 347.896556 347.939546 347.984762 348.033634 348.087281 348.146454 348.211499 348.282331 348.358431 348.438850 348.522246 348.606918 348.646325 348.685460 348.724481 348.763249 348.801305 348.837871 348.871864 348.901917 348.926426 348.943602 348.951536 348.948273 348.870385 348.781251 348.682770 348.576791 348.465047 348.349083 348.230208 348.109451 347.987536 347.864867 347.741534 347.617330 347.447590 347.278432 347.111486 346.948032 346.788951 346.634703 346.485315 346.340388 346.199118 346.060343 345.922591 345.784152 345.586644 345.388028 345.189575 344.992357 344.797196 344.604629 344.414883 344.227870 344.043187 343.860137 343.677762 343.494886 343.260057 343.024950 342.790942 342.559183 342.330542 342.105577 341.884510 341.667221 341.453255 341.241846 341.031952 340.822306 340.559667 340.297426 340.036968 339.779450 339.525751 339.276437 339.031742 338.791555 338.555436 338.322630 338.092110 337.862625 337.581127 337.300835 337.023139 336.749201 336.479907 336.215830 335.957210 335.703947 335.455609 335.211451 334.970460 334.731393 334.441387 334.153493 333.869104 333.589383 333.315220 333.047192 332.785546 332.530185 332.280684 332.036308 331.796048 331.558671 331.270775 330.985995 330.705763 330.431280 330.163468 329.902931 329.649932 329.404387 329.165869 328.933632 328.706648 328.483652 328.213657 327.947654 327.686881 327.432352 327.184819 326.944741 326.712272 326.487256 326.269242 326.057512 325.851120 325.648940 325.395605 325.147190 324.905492 324.672111 324.448386 324.235347 324.033679 323.843707 323.665387 323.498317 323.341764 323.194702 323.008207 322.831345 322.665261 322.510808 322.368504 322.238508 322.120613 322.014248 321.918500 321.832150 321.753717 321.681526 321.559735 321.443760 321.334843 321.234046 321.142203 321.059878 320.987340 320.924550 320.871165 320.826550 320.789807 320.759820 320.685915 320.619028 320.560534 320.511567 320.472981 320.445306 320.428734 320.423107 320.427927 320.442381 320.465376 320.495591 320.479743 320.471121 320.471055 320.480648 320.500731 320.531822 320.574110 320.627444 320.691341 320.765006 320.847373 320.937146 320.981627 321.033529 321.094175 321.164660 321.245808 321.338128 321.441800 321.556661 321.682217 321.817662 321.961911 322.113655 322.219969 322.333763 322.456353 322.588830 322.732007 322.886388 323.052143 323.229098 323.416746 323.614266 323.820558 324.034296 324.202263 324.377629 324.561707 324.755583 324.960066 325.175651 325.402498 325.640424 325.888908 326.147113 326.413923 326.687992 326.916302 327.151765 327.395661 327.649044 327.912694 328.187081 328.472342 328.768279 329.074359 329.389742 329.713314 330.043735 330.325783 330.614727 330.911997 331.218790 331.536014 331.864247 332.203706 332.554235 332.915308 333.286047 333.665255 334.051467 334.392491 334.739980 335.094921 335.458052 335.829814 336.210332 336.599394 336.996455 337.400655 337.810849 338.225652 338.643494 339.006659 339.372732 339.743209 340.119409 340.502413 340.893016 341.291697 341.698598 342.113521 342.535942 342.965037 343.399718 343.787120 344.180386 344.580939 344.989932 345.408196 345.836204 346.274052 346.721450 347.177740 347.641917 348.112675 348.588463 349.011732 349.439731 349.873784 350.314984 350.764146 351.221759 351.687971 352.162571 352.644998 353.134366 353.629492 354.128954 354.576529 355.028303 355.485637 355.949652 356.421177 356.900706 357.388375 357.883954 358.386852 358.896141 359.410592 359.928728 360.393093 360.860964 361.333713 361.812470 362.298068 362.791002 363.291407 363.799046 364.313315 364.833273 365.357674 365.885019 366.357196 366.832128 367.311200 367.795550 368.286018 368.783100 369.286931 369.797266 370.313494 370.834658 371.359495 371.886489 372.356881 372.829235 373.304946 373.785164 374.270735 374.762160 375.259571 375.762720 376.270986 376.783402 377.298688 377.815312 378.272877 378.731636 379.193057 379.658353 380.128425 380.603813 381.084674 381.570766 382.061459 382.555751 383.052318 383.549557 383.989767 384.430180 384.872004 385.316197 385.763427 386.214034 386.668019 387.125038 387.584420 388.045196 388.506147 388.965858 389.359650 389.752764 390.147239 390.544896 390.947262 391.355512 391.770425 392.192354 392.621216 393.056501 393.497294 393.942322 394.335598 394.732901 395.135359 395.543744 395.958429 396.379358 396.806040 397.237556 397.672584 398.109443 398.546155 398.980513 399.346188 399.708533 400.068840 400.428206 400.787475 401.147190 401.507561 401.868445 402.229350 402.589447 402.947604 403.302429 403.594734 403.883781 404.171078 404.457854 404.745007 405.033059 405.322130 405.611929 405.901768 406.190585 406.476988 406.759318 406.974565 407.185522 407.393664 407.600203 407.806034 408.011687 408.217308 408.422642 408.627049 408.829524 409.028742 409.223111 409.350557 409.473036 409.592045 409.708814 409.824255 409.938918 410.052964 410.166156 410.277869 410.387116 410.492587 410.592708 410.625368 410.652613 410.675957 410.696652 410.715630 410.733460 410.750323 410.766000 410.779888 410.791017 410.798101 410.799586 410.733418 410.661643 410.585796 410.507150 410.426658 410.344908 410.262103 410.178047 410.092158 410.