New loadshape.LS_Solar npts=1440 sinterval=60 mult=(0.000000 0.000000 0.000000 0.000000 0.000000 0.000000 0.000000 0.000000 0.000000 0.000000 0.000000 0.000000 0.000000 0.000000 0.000000 0.000000 0.000000 0.000000 0.000000 0.000000 0.000000 0.000000 0.000000 0.000000 0.000000 0.000000 0.000000 0.000000 0.000000 0.000000 0.000000 0.000000 0.000000 0.000000 0.000000 0.000000 0.000000 0.000000 0.000000 0.000000 0.000000 0.000000 0.000000 0.000000 0.000000 0.000000 0.000000 0.000000 0.000000 0.000000 0.000000 0.000000 0.000000 0.000000 0.000000 0.000000 0.000000 0.000000 0.000000 0.000000 0.000000 0.000000 0.000000 0.000000 0.000000 0.000000 0.000000 0.000000 0.000000 0.000000 0.000000 0.000000 0.000000 0.000000 0.000000 0.000000 0.000000 0.000000 0.000000 0.000000 0.000000 0.000000 0.000000 0.000000 0.000000 0.000000 0.000000 0.000000 0.000000 0.000000 0.000000 0.000000 0.000000 0.000000 0.000000 0.000000 0.000000 0.000000 0.000000 0.000000 0.000000 0.000000 0.000000 0.000000 0.000000 0.000000 0.000000 0.000000 0.000000 0.000000 0.000000 0.000000 0.000000 0.000000 0.000000 0.000000 0.000000 0.000000 0.000000 0.000000 0.000000 0.000000 0.000000 0.000000 0.000000 0.000000 0.000000 0.000000 0.000000 0.000000 0.000000 0.000000 0.000000 0.000000 0.000000 0.000000 0.000000 0.000000 0.000000 0.000000 0.000000 0.000000 0.000000 0.000000 0.000000 0.000000 0.000000 0.000000 0.000000 0.000000 0.000000 0.000000 0.000000 0.000000 0.000000 0.000000 0.000000 0.000000 0.000000 0.000000 0.000000 0.000000 0.000000 0.000000 0.000000 0.000000 0.000000 0.000000 0.000000 0.000000 0.000000 0.000000 0.000000 0.000000 0.000000 0.000000 0.000000 0.000000 0.000000 0.000000 0.000000 0.000000 0.000000 0.000000 0.000000 0.000000 0.000000 0.000000 0.000000 0.000000 0.000000 0.000000 0.000000 0.000000 0.000000 0.000000 0.000000 0.000000 0.000000 0.000000 0.000000 0.000000 0.000000 0.000000 0.000000 0.000000 0.000000 0.000000 0.000000 0.000000 0.000000 0.000000 0.000000 0.000000 0.000000 0.000000 0.000000 0.000000 0.000000 0.000000 0.000000 0.000000 0.000000 0.000000 0.000000 0.000000 0.000000 0.000000 0.000000 0.000000 0.000000 0.000000 0.000000 0.000000 0.000000 0.000000 0.000000 0.000000 0.000000 0.000000 0.000000 0.000000 0.000000 0.000000 0.000000 0.000000 0.000000 0.000000 0.000000 0.000000 0.000000 0.000000 0.000000 0.000000 0.000000 0.000000 0.000000 0.000000 0.000000 0.000000 0.000000 0.000000 0.000000 0.000000 0.000000 0.000000 0.000000 0.000000 0.000000 0.000000 0.000000 0.000000 0.000000 0.000000 0.000000 0.000000 0.000000 0.000000 0.000000 0.000000 0.000000 0.000000 0.000000 0.000000 0.000000 0.000000 0.000000 0.000000 0.000000 0.000000 0.000000 0.000000 0.000000 0.000000 0.000000 0.000000 0.000000 0.000000 0.000000 0.000000 0.000000 0.000000 0.000000 0.000000 0.000000 0.000000 0.000000 0.000000 0.000000 0.000000 0.000000 0.000000 0.000000 0.000000 0.000000 0.000000 0.000000 0.000000 0.000000 0.000000 0.000000 0.000000 0.000000 0.000000 0.000000 0.000000 0.000000 0.000000 0.000000 0.000000 0.000000 0.000000 0.000000 0.000000 0.000000 0.000000 0.000000 0.000000 0.000000 0.000000 0.000000 0.000000 0.000000 0.000000 0.000000 0.000000 0.000000 0.000000 0.000000 0.000000 0.000000 0.000000 0.000000 0.000000 0.000000 0.000000 0.000000 0.000000 0.000000 0.000000 0.000000 0.000000 0.000000 0.000000 0.000000 0.000000 0.000000 0.000000 0.000000 0.000000 0.000000 0.000000 0.000000 0.000000 0.000000 0.000000 0.000000 0.000000 0.000000 0.000000 0.000000 0.000000 0.000000 0.000000 0.000000 0.000000 0.000000 0.000000 0.000000 0.000000 0.000000 0.000000 0.000000 0.000000 0.000000 0.000000 0.000000 0.000000 0.000000 0.000000 0.000000 0.000000 0.000000 0.000000 0.000000 0.000000 0.000000 0.000000 0.000000 0.000000 0.000000 0.000000 0.000000 0.000000 0.000000 0.000000 0.000000 0.000000 0.000000 0.000000 0.000000 0.000000 0.000000 0.000000 0.000000 0.000000 0.000000 0.000000 0.000000 0.000000 0.000000 0.000000 0.000000 0.000000 0.000000 0.000000 0.000000 0.000000 0.000000 0.000000 0.000000 0.000000 0.000000 0.000000 0.000000 0.000000 0.000000 0.000000 0.000000 0.000000 0.000000 0.000000 0.000000 0.000000 0.000000 0.000000 0.000000 0.000000 0.000000 0.000000 0.000000 0.000000 0.000000 0.000000 0.000000 0.000000 0.000000 0.000000 0.008000 0.011000 0.014000 0.019000 0.024000 0.029000 0.035000 0.041000 0.047000 0.054000 0.061000 0.068000 0.075000 0.083000 0.091000 0.099000 0.107000 0.116000 0.125000 0.133000 0.144000 0.154000 0.163000 0.172000 0.183000 0.193000 0.204000 0.215000 0.225000 0.237000 0.248000 0.259000 0.269000 0.280000 0.290000 0.301000 0.311000 0.321000 0.326000 0.343000 0.355000 0.367000 0.379000 0.389000 0.400000 0.412000 0.422000 0.432000 0.442000 0.451000 0.462000 0.467000 0.482000 0.493000 0.503000 0.513000 0.522000 0.531000 0.541000 0.550000 0.557000 0.564000 0.572000 0.576000 0.581000 0.586000 0.589000 0.592000 0.595000 0.599000 0.602000 0.605000 0.607000 0.609000 0.611000 0.614000 0.617000 0.619000 0.621000 0.623000 0.625000 0.625000 0.626000 0.626000 0.627000 0.628000 0.629000 0.631000 0.634000 0.635000 0.637000 0.637000 0.638000 0.640000 0.641000 0.642000 0.641000 0.642000 0.645000 0.646000 0.646000 0.646000 0.648000 0.650000 0.651000 0.652000 0.652000 0.652000 0.653000 0.653000 0.653000 0.653000 0.656000 0.658000 0.659000 0.660000 0.660000 0.660000 0.660000 0.660000 0.661000 0.662000 0.662000 0.662000 0.662000 0.662000 0.662000 0.662000 0.661000 0.659000 0.659000 0.658000 0.659000 0.659000 0.661000 0.661000 0.661000 0.659000 0.659000 0.659000 0.661000 0.663000 0.664000 0.664000 0.663000 0.662000 0.662000 0.662000 0.660000 0.658000 0.658000 0.659000 0.658000 0.657000 0.656000 0.656000 0.657000 0.657000 0.659000 0.658000 0.657000 0.656000 0.657000 0.657000 0.656000 0.655000 0.654000 0.652000 0.651000 0.650000 0.648000 0.646000 0.645000 0.643000 0.642000 0.640000 0.639000 0.639000 0.639000 0.638000 0.638000 0.637000 0.637000 0.635000 0.633000 0.633000 0.631000 0.628000 0.629000 0.630000 0.630000 0.629000 0.629000 0.630000 0.630000 0.630000 0.628000 0.627000 0.626000 0.627000 0.625000 0.623000 0.623000 0.623000 0.622000 0.622000 0.621000 0.619000 0.619000 0.618000 0.617000 0.616000 0.616000 0.615000 0.614000 0.611000 0.611000 0.612000 0.613000 0.614000 0.614000 0.612000 0.611000 0.611000 0.611000 0.610000 0.609000 0.608000 0.608000 0.608000 0.608000 0.608000 0.608000 0.608000 0.607000 0.605000 0.604000 0.603000 0.601000 0.602000 0.602000 0.600000 0.599000 0.599000 0.599000 0.601000 0.602000 0.602000 0.602000 0.602000 0.601000 0.601000 0.601000 0.601000 0.602000 0.604000 0.604000 0.605000 0.605000 0.606000 0.606000 0.607000 0.607000 0.607000 0.607000 0.607000 0.606000 0.605000 0.605000 0.604000 0.603000 0.603000 0.602000 0.601000 0.599000 0.598000 0.596000 0.595000 0.595000 0.595000 0.593000 0.591000 0.591000 0.589000 0.588000 0.586000 0.587000 0.586000 0.587000 0.587000 0.588000 0.587000 0.586000 0.585000 0.586000 0.587000 0.588000 0.589000 0.589000 0.589000 0.589000 0.590000 0.591000 0.591000 0.591000 0.591000 0.592000 0.592000 0.591000 0.591000 0.593000 0.595000 0.596000 0.596000 0.598000 0.599000 0.600000 0.602000 0.603000 0.604000 0.605000 0.607000 0.608000 0.610000 0.612000 0.613000 0.615000 0.617000 0.618000 0.619000 0.620000 0.621000 0.621000 0.620000 0.619000 0.619000 0.619000 0.619000 0.618000 0.617000 0.618000 0.617000 0.618000 0.618000 0.616000 0.615000 0.614000 0.614000 0.616000 0.617000 0.620000 0.622000 0.623000 0.626000 0.628000 0.630000 0.630000 0.631000 0.632000 0.635000 0.637000 0.639000 0.640000 0.641000 0.641000 0.642000 0.641000 0.640000 0.639000 0.639000 0.640000 0.641000 0.642000 0.643000 0.645000 0.646000 0.646000 0.647000 0.647000 0.646000 0.646000 0.646000 0.648000 0.650000 0.652000 0.656000 0.658000 0.659000 0.659000 0.660000 0.660000 0.662000 0.662000 0.663000 0.665000 0.667000 0.669000 0.670000 0.671000 0.671000 0.671000 0.670000 0.670000 0.670000 0.669000 0.670000 0.670000 0.671000 0.671000 0.671000 0.672000 0.673000 0.673000 0.672000 0.670000 0.669000 0.670000 0.673000 0.675000 0.677000 0.677000 0.677000 0.677000 0.676000 0.674000 0.673000 0.674000 0.675000 0.677000 0.678000 0.678000 0.677000 0.677000 0.678000 0.679000 0.679000 0.679000 0.680000 0.679000 0.679000 0.679000 0.678000 0.678000 0.677000 0.675000 0.673000 0.671000 0.670000 0.670000 0.670000 0.671000 0.670000 0.670000 0.668000 0.666000 0.666000 0.667000 0.666000 0.665000 0.664000 0.663000 0.662000 0.661000 0.660000 0.660000 0.658000 0.656000 0.655000 0.653000 0.653000 0.652000 0.651000 0.650000 0.649000 0.646000 0.645000 0.643000 0.640000 0.637000 0.635000 0.633000 0.633000 0.633000 0.631000 0.624000 0.611000 0.601000 0.596000 0.582000 0.562000 0.547000 0.531000 0.518000 0.505000 0.493000 0.482000 0.478000 0.460000 0.448000 0.437000 0.426000 0.416000 0.405000 0.395000 0.384000 0.373000 0.363000 0.352000 0.341000 0.331000 0.320000 0.310000 0.299000 0.289000 0.282000 0.272000 0.263000 0.253000 0.244000 0.236000 0.227000 0.218000 0.209000 0.199000 0.189000 0.180000 0.171000 0.163000 0.153000 0.146000 0.138000 0.131000 0.124000 0.118000 0.113000 0.106000 0.103000 0.099000 0.093000 0.089000 0.084000 0.079000 0.073000 0.069000 0.063000 0.058000 0.053000 0.049000 0.045000 0.040000 0.037000 0.033000 0.030000 0.026000 0.023000 0.021000 0.019000 0.017000 0.015000 0.014000 0.013000 0.012000 0.008000 0.004000 0.005000 0.001000 0.000000 0.000000 0.000000 0.000000 0.000000 0.000000 0.000000 0.000000 0.000000 0.000000 0.000000 0.000000 0.000000 0.000000 0.000000 0.000000 0.000000 0.000000 0.000000 0.000000 0.000000 0.000000 0.000000 0.000000 0.000000 0.000000 0.000000 0.000000 0.000000 0.000000 0.000000 0.000000 0.000000 0.000000 0.000000 0.000000 0.000000 0.000000 0.000000 0.000000 0.000000 0.000000 0.000000 0.000000 0.000000 0.000000 0.000000 0.000000 0.000000 0.000000 0.000000 0.000000 0.000000 0.000000 0.000000 0.000000 0.000000 0.000000 0.000000 0.000000 0.000000 0.000000 0.000000 0.000000 0.000000 0.000000 0.000000 0.000000 0.000000 0.000000 0.000000 0.000000 0.000000 0.000000 0.000000 0.000000 0.000000 0.000000 0.000000 0.000000 0.000000 0.000000 0.000000 0.000000 0.000000 0.000000 0.000000 0.000000 0.000000 0.000000 0.000000 0.000000 0.000000 0.000000 0.000000 0.000000 0.000000 0.000000 0.000000 0.000000 0.000000 0.000000 0.000000 0.000000 0.000000 0.000000 0.000000 0.000000 0.000000 0.000000 0.000000 0.000000 0.000000 0.000000 0.000000 0.000000 0.000000 0.000000 0.000000 0.000000 0.000000 0.000000 0.000000 0.000000 0.000000 0.000000 0.000000 0.000000 0.000000 0.000000 0.000000 0.000000 0.000000 0.000000 0.000000 0.000000 0.000000 0.000000 0.000000 0.000000 0.000000 0.000000 0.000000 0.000000 0.000000 0.000000 0.000000 0.000000 0.000000 0.000000 0.000000 0.000000 0.000000 0.000000 0.000000 0.000000 0.000000 0.000000 0.000000 0.000000 0.000000 0.000000 0.000000 0.000000 0.000000 0.000000 0.000000 0.000000 0.000000 0.000000 0.000000 0.000000 0.000000 0.000000 0.000000 0.000000 0.000000 0.000000 0.000000 0.000000 0.000000 0.000000 0.000000 0.000000 0.000000 0.000000 0.000000 0.000000 0.000000 0.000000 0.000000 0.000000 0.000000 0.000000 0.000000 0.000000 0.000000 0.000000 0.000000 0.000000 0.000000 0.000000 0.000000 0.000000 0.000000 0.000000 0.000000 0.000000 0.000000 0.000000 0.000000 0.000000 0.000000 0.000000 0.000000 0.000000 0.000000 0.000000 0.000000 0.000000 0.000000 0.000000 0.000000 0.000000 0.000000 0.000000 0.000000 0.000000 0.000000 0.000000 0.000000 0.000000 0.000000 0.000000 0.000000 0.000000 0.000000 0.000000 0.000000 0.000000 0.000000 0.000000 0.000000 0.000000 0.000000 0.000000 0.000000 0.000000 0.000000 0.000000 0.000000 0.000000 0.000000 0.000000 0.000000 0.000000 0.000000 0.000000 0.000000 0.000000 0.000000 0.000000 0.000000 0.000000 0.000000 0.000000 0.000000 0.000000 0.000000 0.000000 0.000000 0.000000 0.000000 0.000000 0.000000 0.000000 0.000000 0.000000 0.000000 0.000000 0.000000 0.000000 0.000000 0.000000 0.000000 0.000000 0.000000 0.000000 0.000000 0.000000 0.000000 0.000000 0.000000 0.000000 0.000000 0.000000 0.000000 0.000000 0.000000 0.000000 0.000000 0.000000 0.000000 0.000000 0.000000 0.000000 0.000000 0.000000 0.000000 0.000000 0.000000 0.000000 0.000000 0.000000 0.000000 0.000000 0.000000 0.000000 0.000000 0.000000 0.000000 0.000000 0.000000 0.000000 0.000000 0.000000 0.000000 0.000000 0.000000 0.000000 0.000000 0.000000 0.000000 0.000000 0.000000 0.000000 0.000000 0.000000 0.000000 0.000000 0.000000 0.000000 0.000000 0.000000 0.000000 0.000000 0.000000 0.000000 0.000000 0.000000 0.000000 0.000000 0.000000 0.000000 0.000000 0.000000 0.000000 0.000000 0.000000 0.000000 0.000000 0.000000 0.000000 0.000000 0.000000 0.000000 0.000000 0.000000 0.000000 0.000000 0.000000 0.000000 0.000000 0.000000 0.000000 0.000000 0.000000 0.000000 0.000000 0.000000 0.000000 0.000000 0.000000 0.000000 0.000000 0.000000 0.000000 0.000000 0.000000 0.000000 0.000000 0.000000 0.000000 0.000000 0.000000 0.000000 0.000000 0.000000 0.000000 0.000000 0.000000 0.000000 0.000000 0.000000 0.000000 0.000000 )
new generator.PV bus1=258406480 phases=3 kv=12.47 kW=4000 pf=1.00 Daily=LS_Solar enable=true
