New loadshape.LS_PhaseA npts=17280 sinterval=5 pmult=(350.000031 349.862585 349.727714 349.596942 349.471554 349.352539 349.240558 349.135912 349.038540 348.948020 348.863595 348.784210 348.708560 348.581543 348.458366 348.340426 348.228873 348.124556 348.027993 347.939344 347.858408 347.784632 347.717134 347.654744 347.596058 347.485475 347.378565 347.276690 347.180982 347.092286 347.011126 346.937681 346.871777 346.812893 346.760189 346.712535 346.668568 346.573219 346.481575 346.395008 346.314653 346.241354 346.175633 346.117660 346.067254 346.023883 345.986690 345.954532 345.926032 345.845959 345.769537 345.698131 345.632868 345.574589 345.523809 345.480697 345.445067 345.416386 345.393795 345.376150 345.362074 345.296454 345.234387 345.177232 345.126110 345.081856 345.044981 345.015651 344.993677 344.978523 344.969329 344.964951 344.964010 344.911501 344.862407 344.818078 344.779631 344.747896 344.723381 344.706247 344.696303 344.693011 344.695509 344.702654 344.713065 344.671801 344.633775 344.600335 344.572594 344.551379 344.537196 344.530203 344.530208 344.536670 344.548727 344.565232 344.584803 344.552703 344.523624 344.498898 344.479626 344.466622 344.460382 344.461057 344.468447 344.482011 344.500887 344.523931 344.549768 344.523532 344.500073 344.480748 344.466683 344.458718 344.457373 344.462825 344.474897 344.493066 344.516485 344.544023 344.574310 344.552880 344.534153 344.519452 344.509862 344.506183 344.508892 344.518118 344.533642 344.554898 344.581001 344.610783 344.642845 344.622474 344.604308 344.589672 344.579658 344.575080 344.576431 344.583866 344.597189 344.615863 344.639032 344.665559 344.694075 344.670212 344.648299 344.629661 344.615396 344.606315 344.602911 344.605334 344.613384 344.626518 344.643875 344.664311 344.686450 344.655910 344.627025 344.601119 344.579285 344.562335 344.550760 344.544711 344.543992 344.548062 344.556065 344.566861 344.579082 344.538497 344.499293 344.462795 344.430095 344.402004 344.379014 344.361278 344.348601 344.340446 344.335961 344.334011 344.333232 344.279522 344.226947 344.176830 344.130264 344.088059 344.050709 344.018370 343.990848 343.967612 343.947813 343.930324 343.913785 343.844240 343.775618 343.709243 343.646207 343.587322 343.533083 343.483648 343.438829 343.398097 343.360612 343.325251 343.290663 343.203348 343.116773 343.032245 342.950841 342.873360 342.800291 342.731787 342.667661 342.607392 342.550152 342.494836 342.440118 342.331717 342.223989 342.118318 342.015860 341.917488 341.823752 341.734855 341.650645 341.570617 341.493938 341.419479 341.345863 341.220887 341.096543 340.973978 340.854102 340.737541 340.624605 340.515277 340.409206 340.305724 340.203870 340.102431 340.000000 339.841906 339.682850 339.524251 339.367328 339.213049 339.062090 338.914812 338.771240 338.631075 338.493704 338.358236 338.223543 338.038087 337.853677 337.671689 337.493250 337.319196 337.150033 336.985920 336.826663 336.671728 336.520262 336.371135 336.222989 336.022343 335.822664 335.625267 335.431243 335.241418 335.056310 334.876110 334.700676 334.529537 334.361921 334.196781 334.032853 333.817955 333.604357 333.393387 333.186147 332.983467 332.785866 332.593537 332.406333 332.223780 332.045097 331.869231 331.694910 331.469893 331.246501 331.026057 330.809661 330.598140 330.392016 330.191482 329.996393 329.806281 329.620370 329.437616 329.256753 329.025799 328.796822 328.571140 328.349850 328.133777 327.923440 327.719034 327.520416 327.327122 327.138381 326.953154 326.770184 326.537748 326.307655 326.081220 325.859534 325.643419 325.433393 325.229649 325.032047 324.840124 324.653114 324.469984 324.289482 324.060243 323.833713 323.611193 323.393765 323.182241 322.977133 322.778630 322.586591 322.400556 322.219763 322.043188 321.869589 321.647512 321.428523 321.213943 321.004875 320.802150 320.606297 320.417520 320.235688 320.060343 319.890722 319.725793 319.564297 319.355670 319.150476 318.949949 318.755095 318.566654 318.385068 318.210455 318.042614 317.881027 317.724884 317.573121 317.424469 317.227647 317.034008 316.844867 316.661334 316.484260 316.314206 316.151418 315.995820 315.847020 315.704326 315.566784 315.433218 315.253558 315.078016 314.907887 314.744237 314.587867 314.439272 314.298623 314.165763 314.040212 313.921192 313.807662 313.698364 313.542646 313.391187 313.245250 313.105883 312.973874 312.849716 312.733585 312.625334 312.524503 312.430335 312.341813 312.257706 312.127880 312.002513 311.882867 311.769983 311.664646 311.567339 311.478234 311.397176 311.323696 311.257030 311.196153 311.139825 311.037929 310.940606 310.849107 310.764466 310.687457 310.618559 310.557937 310.505430 310.460564 310.422572 310.390423 310.362876 310.289910 310.221553 310.159045 310.103413 310.055422 310.015546 309.983940 309.960440 309.944566 309.935544 309.932342 309.933711 309.889707 309.850265 309.816617 309.789781 309.770516 309.759288 309.756246 309.761219 309.773723 309.792977 309.817945 309.847372 309.831176 309.819422 309.813348 309.813972 309.822057 309.838066 309.862148 309.894127 309.933513 309.979517 310.031087 310.086957 310.097682 310.112612 310.132923 310.159582 310.193295 310.234484 310.283262 310.339429 310.402480 310.471631 310.545845 310.623888 310.655124 310.690271 310.730651 310.777381 310.831322 310.893045 310.962801 311.040515 311.125789 311.217916 311.315917 311.418579 311.476970 311.539944 311.608647 311.683994 311.766625 311.856873 311.954748 312.059934 312.171797 312.289409 312.411586 312.536940 312.614673 312.695347 312.780132 312.869998 312.965664 313.067573 313.175858 313.290344 313.410546 313.535693 313.664754 313.796490 313.881470 313.969074 314.060505 314.156750 314.258537 314.366297 314.480146 314.599875 314.724960 314.854583 314.987662 315.122905 315.210194 315.299532 315.392112 315.488914 315.590661 315.697783 315.810397 315.928298 316.050969 316.177599 316.307118 316.438240 316.521038 316.605337 316.692331 316.783003 316.878075 316.977979 317.082833 317.192432 317.306261 317.423510 317.543110 317.663779 317.735586 317.808364 317.883310 317.961408 318.043382 318.129667 318.220383 318.315330 318.413993 318.515566 318.618984 318.722967 318.777601 318.832712 318.889500 318.948954 319.011802 319.078482 319.149117 319.223512 319.301157 319.381251 319.462734 319.544331 319.576617 319.608919 319.642415 319.678073 319.716606 319.758441 319.803696 319.852176 319.903381 319.956524 320.010568 320.064270 320.066782 320.069016 320.072283 320.077674 320.086017 320.097837 320.113331 320.132356 320.154433 320.178768 320.204279 320.229642 320.206993 320.183820 320.161067 320.139452 320.119425 320.101144 320.084465 320.068939 320.053831 320.038147 320.020673 320.000031 319.924323 319.845446 319.764769 319.683494 319.602606 319.522829 319.444603 319.368062 319.293041 319.219081 319.145460 319.071227 318.949108 318.826751 318.705466 318.586320 318.470095 318.357255 318.247934 318.141926 318.038700 317.937424 317.837005 317.736134 317.584318 317.431984 317.280356 317.130451 316.983040 316.838610 316.697345 316.559119 316.423503 316.289783 316.156996 316.023971 315.842015 315.659920 315.478936 315.300101 315.124198 314.951722 314.782859 314.617479 314.455144 314.295130 314.136459 313.977945 313.770606 313.563516 313.357924 313.154872 312.955145 312.759242 312.567353 312.379355 312.194817 312.013024 311.833006 311.653588 311.425998 311.199112 310.974181 310.752245 310.534093 310.320224 310.110833 309.905802 309.704706 309.506836 309.311231 309.116725 308.874769 308.634025 308.395743 308.160963 307.930471 307.704770 307.484056 307.268213 307.056823 306.849182 306.644337 306.441129 306.191268 305.943161 305.698052 305.456978 305.220723 304.989786 304.764364 304.544345 304.329311 304.118565 303.911160 303.705946 303.454765 303.205903 302.960607 302.719918 302.484622 302.255225 302.031926 301.814616 301.602881 301.396027 301.193107 300.992969 300.747865 300.505640 300.267511 300.034486 299.807324 299.586502 299.372194 299.164270 298.962300 298.765575 298.573143 298.383850 298.149895 297.919191 297.692975 297.472277 297.257884 297.050303 296.849744 296.656109 296.469003 296.287751 296.111433 295.938924 295.722901 295.510814 295.303882 295.103124 294.909305 294.722911 294.544125 294.372827 294.208595 294.050729 293.898283 293.750109 293.558845 293.371937 293.190592 293.015813 292.848358 292.688707 292.537042 292.393239 292.256880 292.127268 292.003462 291.884319 291.722726 291.565873 291.414958 291.270977 291.134679 291.006537 290.886726 290.775115 290.671280 290.574518 290.483883 290.398226 290.270518 290.147845 290.031394 289.922151 289.820857 289.727976 289.643675 289.567817 289.499972 289.439430 289.385239 289.336245 289.245502 289.159992 289.080891 289.009177 288.945581 288.890558 288.844267 288.806565 288.777011 288.754892 288.739247 288.728916 288.676999 288.630409 288.590313 288.557678 288.533227 288.517405 288.510364 288.511952 288.521722 288.538950 288.562669 288.591710 288.578933 288.571482 288.570529 288.577046 288.591758 288.615111 288.647255 288.688031 288.736982 288.793372 288.856216 288.924323 288.951350 288.983539 289.021985 289.067585 289.120996 289.182605 289.252513 289.330530 289.416180 289.508728 289.607209 289.710473 289.770518 289.835478 289.906645 289.985121 290.071768 290.167173 290.271621 290.385088 290.507239 290.637445 290.774810 290.918213 291.021857 291.131455 291.248062 291.372511 291.505365 291.646896 291.797066 291.955524 292.121619 292.294423 292.472766 292.655285 292.793602 292.935799 293.082963 293.235999 293.395582 293.562123 293.735752 293.916306 294.103331 294.296103 294.493657 294.694825 294.852966 295.014665 295.181058 295.353074 295.531395 295.716423 295.908258 296.106691 296.311214 296.521038 296.735124 296.952228 297.124683 297.300011 297.479334 297.663573 297.853404 298.049226 298.251139 298.458938 298.672120 298.889903 299.111256 299.334947 299.513435 299.694123 299.878136 300.066396 300.259581 300.458090 300.662022 300.871173 301.085036 301.302829 301.523518 301.745866 301.922196 302.100051 302.280557 302.464642 302.652985 302.845988 303.043753 303.246075 303.452450 303.662093 303.873971 304.086845 304.252909 304.419841 304.588774 304.760641 304.936126 305.115635 305.299273 305.486839 305.677830 305.871463 306.066707 306.262325 306.411044 306.559984 306.710249 306.862743 307.018129 307.176794 307.338835 307.504048 307.671938 307.841740 308.012447 308.182858 308.303499 308.423916 308.545403 308.669041 308.795656 308.925776 309.059604 309.197008 309.337521 309.480358 309.624442 309.768452 309.866973 309.964852 310.062867 310.161565 310.261234 310.361878 310.463211 310.564663 310.665395 310.764332 310.860204 310.951599 310.987161 311.018207 311.046121 311.072143 311.097321 311.122463 311.148115 311.174532 311.201681 311.229246 311.256647 311.283077 311.263548 311.243538 311.224343 311.207013 311.192307 311.180665 311.172192 311.166657 311.163503 311.161874 311.160656 311.158524 311.105694 311.051805 310.998035 310.945364 310.894538 310.846024 310.800002 310.756348 310.714647 310.674204 310.634085 310.593150 310.503963 310.414046 310.324617 310.236688 310.151021 310.068097 309.988094 309.910880 309.836024 309.762812 309.690278 309.617257 309.495685 309.373693 309.252505 309.133138 309.016360 308.902655 308.792209 308.684895 308.580288 308.477679 308.376113 308.274429 308.124651 307.974839 307.826218 307.679808 307.536382 307.396429 307.260135 307.127381 306.997745 306.870526 306.744773 306.619332 306.446341 306.273756 306.102805 305.934509 305.769641 305.608693 305.451854 305.299008 305.149737 305.003344 304.858882 304.715205 304.524187 304.334075 304.146119 303.961361 303.780590 303.604313 303.432731 303.265730 303.102896 302.943525 302.786663 302.631145 302.430288 302.230774 302.033738 301.840116 301.650601 301.465616 301.285299 301.109500 300.937789 300.769482 300.603673 300.439279 300.227252 300.017040 299.810095 299.607682 299.410823 299.220265 299.036448 298.859493 298.689203 298.525076 298.366331 298.211945 298.016657 297.825814 297.640498 297.461548 297.289524 297.124678 296.966947 296.815947 296.670992 296.531122 296.395137 296.261654 296.081681 295.903980 295.729682 295.559744 295.394900 295.235632 295.082144 294.934357 294.791908 294.654170 294.520280 294.389175 294.214993 294.043762 293.876685 293.714755 293.558716 293.409032 293.265862 293.129062 292.998187 292.872515 292.751077 292.632705 292.470303 292.310994 292.155951 292.006148 291.862312 291.724900 291.594071 291.469688 291.351318 291.238255 291.129553 291.024066 290.875301 290.729790 290.588698 290.452992 290.323394 290.200353 290.084026 289.974272 289.870656 289.772472 289.678773 289.588414 289.455072 289.325100 289.199656 289.079697 288.965941 288.858831 288.758522 288.664867 288.577431 288.495508 288.418150 288.344212 288.227528 288.114285 288.005634 287.902527 287.805673 287.715513 287.632197 287.555577 287.485215 287.420404 287.360196 287.303449 287.204570 287.109140 287.018277 286.932903 286.853706 286.781104 286.715234 286.655941 286.602790 286.555080 286.511880 286.472068 286.388758 286.308958 286.233902 286.164620 286.101900 286.046246 285.997861 285.956631 285.922134 285.893653 285.870204 285.850582 285.790781 285.734480 285.682552 285.635660 285.594217 285.558370 285.527982 285.502641 285.481666 285.464141 285.448947 285.434814 285.373849 285.313952 285.256393 285.202292 285.152564 285.107889 285.068682 285.035077 285.006932 284.983832 284.965119 284.949923 284.894702 284.843338 284.797035 284.756771 284.723261 284.696928 284.677884 284.665927 284.660554 284.660983 284.666187 284.674941 284.640500 284.609499 284.583054 284.562091 284.547306 284.539132 284.537724 284.542947 284.554384 284.571356 284.592947 284.618051 284.601480 284.588447 284.580085 284.577336 284.580899 284.591211 284.608417 284.632371 284.662639 284.698516 284.739064 284.783146 284.785090 284.790562 284.800694 284.816425 284.838453 284.867211 284.902843 284.945199 284.993842 285.048066 285.106927 285.169285 285.189422 285.213042 285.241275 285.275057 285.315085 285.361790 285.415312 285.475500 285.541912 285.613838 285.690331 285.770246 285.807800 285.848753 285.894234 285.945177 286.002278 286.065965 286.136375 286.213354 286.296456 286.384969 286.477939 286.574217 286.627686 286.684444 286.745634 286.812202 286.884853 286.964022 287.049850 287.142180 287.240565 287.344278 287.452356 287.563630 287.632696 287.704850 287.781166 287.862523 287.949565 288.042674 288.141949 288.247207 288.357985 288.473565 288.593004 288.715180 288.792986 288.873665 288.958494 289.048560 289.144718 289.247550 289.357348 289.474095 289.597472 289.726870 289.861421 290.000031 290.097747 290.199460 290.306216 290.418840 290.537898 290.663664 290.796112 290.934907 291.079420 291.228750 291.381760 291.537124 291.647308 291.759584 291.875034 291.994562 292.118848 292.248311 292.383095 292.523055 292.667764 292.816528 292.968415 293.122298 293.232372 293.344430 293.459605 293.578833 293.702801 293.831923 293.966316 294.105796 294.249884 294.397823 294.548614 294.701058 294.808348 294.917198 295.028733 295.143879 295.263323 295.387477 295.516463 295.650102 295.787922 295.929178 296.072883 296.217849 296.317432 296.418200 296.521282 296.627607 296.737864 296.852469 296.971544 297.094911 297.222100 297.352366 297.484720 297.617975 297.705398 297.793652 297.883869 297.976983 298.073687 298.174399 298.279244 298.388047 298.500339 298.615375 298.732170 298.849536 298.920668 298.992308 299.065596 299.141469 299.220625 299.303486 299.390180 299.480534 299.574084 299.670087 299.767560 299.865317 299.916950 299.968792 300.021961 300.077377 300.135720 300.197402 300.262545 300.330976 300.402235 300.475594 300.550088 300.624559 300.651101 300.677704 300.705613 300.735873 300.769278 300.806335 300.847242 300.891875 300.939796 300.990262 301.042261 301.094552 301.102090 301.109560 301.117851 301.127634 301.139329 301.153079 301.168744 301.185894 301.203832 301.221616 301.238101 301.251984 301.214139 301.173698 301.131969 301.090103 301.049046 301.009501 300.971899 300.936389 300.902830 300.870808 300.839657 300.808494 300.732664 300.657195 300.583331 300.512090 300.444216 300.380153 300.320030 300.263652 300.210518 300.159837 300.110572 300.061481 299.964630 299.867882 299.772398 299.679146 299.588857 299.501995 299.418735 299.338960 299.262263 299.187968 299.115159 299.042725 298.924411 298.806556 298.690348 298.576772 298.466572 298.360215 298.257878 298.159433 298.064463 297.972276 297.881936 297.792312 297.656760 297.521993 297.389198 297.259361 297.133227 297.011265 296.893653 296.780267 296.670692 296.564238 296.459976 296.356777 296.208102 296.060566 295.915354 295.773451 295.635602 295.502277 295.373653 295.249608 295.129730 295.013331 294.899483 294.787063 294.629651 294.473744 294.320524 294.170976 294.025841 293.885590 293.750397 293.620143 293.494413 293.372524 293.253551 293.136369 292.974505 292.814521 292.657605 292.504749 292.356699 292.213928 292.076617 291.944645 291.817597 291.694786 291.575281 291.457951 291.297063 291.138374 290.983017 290.831928 290.685805 290.545082 290.409904 290.280132 290.155344 290.034857 289.917765 289.802974 289.643705 289.486942 289.333963 289.185852 289.043460 288.907366 288.777856 288.654915 288.538227 288.427195 288.320966 288.218475 288.074781 287.934876 287.799858 287.670611 287.547763 287.431659 287.322346 287.219568 287.122781 287.031169 286.943683 286.859086 286.730749 286.605198 286.483550 286.366739 286.255471 286.150196 286.051082 285.958015 285.870597 285.788169 285.709836 285.634512 285.517090 285.402751 285.292641 285.187707 285.088656 284.995923 284.909656 284.829705 284.755632 284.686730 284.622055 284.560468 284.456341 284.355305 284.258486 284.166819 284.080998 284.001454 283.928328 283.861473 283.800454 283.744570 283.692884 283.644268 283.553430 283.465663 283.382087 283.303625 283.230969 283.164540 283.104477 283.050627 283.002553 282.959551 282.920684 282.884822 282.806809 282.731792 282.660881 282.594995 282.534817 282.480764 282.432970 282.391279 282.355250 282.324178 282.297124 282.272957 282.206655 282.143221 282.083759 282.029181 281.980165 281.937122 281.900182 281.869186 281.843690 281.822990 281.806144 281.792021 281.735874 281.682416 281.632736 281.587730 281.548065 281.514144 281.486088 281.463735 281.446641 281.434101 281.425181 281.418757 281.369730 281.323204 281.280305 281.241963 281.208873 281.181465 281.159882 281.143973 281.133298 281.127148 281.124570 281.124413 281.082642 281.043144 281.006919 280.974769 280.947264 280.924708 280.907131 280.894278 280.885624 280.880393 280.877588 280.876038 280.830493 280.786169 280.744195 280.705527 280.670901 280.640801 280.615440 280.594752 280.578392 280.565756 280.556003 280.548101 280.498381 280.450589 280.405832 280.365014 280.328802 280.297592 280.271495 280.250331 280.233636 280.220681 280.210506 280.201961 280.150415 280.100427 280.053072 280.009236 279.969575 279.934492 279.904112 279.878279 279.856559 279.838263 279.822472 279.808082 279.751122 279.695542 279.642419 279.592642 279.546872 279.505509 279.468678 279.436221 279.407702 279.382427 279.359475 279.337735 279.273226 279.209906 279.148849 279.090943 279.036848 278.986965 278.941419 278.900054 278.862437 278.827879 278.795462 278.764083 278.689911 278.616757 278.545693 278.477608 278.413160 278.352750 278.296505 278.244272 278.195622 278.149868 278.106101 278.063221 277.977562 277.892778 277.809940 277.729935 277.653421 277.580800 277.512203 277.447477 277.386197 277.327685 277.271034 277.215154 277.116704 277.019010 276.923135 276.829955 276.740124 276.654039 276.571828 276.493342 276.418162 276.345616 276.274812 276.204674 276.091556 275.979148 275.868550 275.760681 275.656226 275.555619 275.459012 275.366275 275.276999 275.190513 275.105914 275.022106 274.896603 274.771789 274.648644 274.527955 274.410284 274.295942 274.184967 274.077130 273.971940 273.868663 273.766356 273.663910 273.517678 273.371332 273.225988 273.082593 272.941884 272.804356 272.670245 272.539513 272.411861 272.286737 272.163365 272.040782 271.877047 271.714253 271.553493 271.395665 271.241438 271.091221 270.945145 270.803066 270.664562 270.528963 270.395373 270.262716 270.088161 269.914546 269.742933 269.574201 269.409013 269.247782 269.090659 268.937525 268.787996 268.641443 268.497018 268.353695 268.169411 267.986293 267.805406 267.627632 267.453637 267.283836 267.118380 266.957150 266.799760 266.645581 266.493764 266.343282 266.152148 265.962412 265.775133 265.591195 265.411258 265.235740 265.064792 264.898298 264.735877 264.576904 264.420538 264.265760 264.070816 263.877525 263.686945 263.499955 263.317213 263.139137 262.965879 262.797324 262.633096 262.472574 262.314923 262.159132 261.963677 261.770150 261.579603 261.392910 261.210730 261.033477 260.861305 260.694099 260.531487 260.372852 260.217365 260.064019 259.871594 259.681376 259.494407 259.311554 259.133470 258.960563 258.792984 258.630621 258.473102 258.319818 258.169944 258.022484 257.836185 257.652389 257.472154 257.296362 257.125680 256.960531 256.801076 256.647210 256.498567 256.354536 256.214288 256.076816 255.901553 255.729075 255.560372 255.396257 255.237330 255.083947 254.936209 254.793960 254.656789 254.524051 254.394896 254.268311 254.103219 253.940759 253.781985 253.627784 253.478839 253.335597 253.198255 253.066748 252.940760 252.819736 252.702908 252.589333 252.438848 252.291732 252.149022 252.011577 251.880039 251.754809 251.636028 251.523572 251.417061 251.315877 251.219188 251.125991 250.995702 250.868935 250.746707 250.629861 250.519035 250.414624 250.316776 250.225377 250.140059 250.060221 249.985052 249.913569 249.805570 249.701303 249.601780 249.507843 249.420124 249.339018 249.264664 249.196946 249.135491 249.079692 249.028732 248.981622 248.898166 248.818591 248.743903 248.674940 248.612327 248.556454 248.507459 248.465220 248.429362 248.399274 248.374136 248.352959 248.295601 248.242220 248.193820 248.151229 248.115070 248.085729 248.063338 248.047771 248.038650 248.035361 248.037080 248.042813 248.012446 247.986097 247.964764 247.949273 247.940240 247.938047 247.942821 247.954433 247.972500 247.996403 248.025316 248.058238 248.055041 248.055846 248.061646 248.073264 248.091313 248.116169 248.147957 248.186544 248.231540 248.282324 248.338062 248.397749 248.421261 248.448698 248.481045 248.519118 248.563524 248.614632 248.672561 248.737171 248.808070 248.884629 248.966012 249.051211 249.099962 249.152504 249.209830 249.272760 249.341910 249.417655 249.500120 249.589168 249.684410 249.785217 249.890751 250.000000 250.072722 250.149113 250.230153 250.316648 250.409196 250.508156 250.613634 250.725473 250.843265 250.966363 251.093909 251.224874 251.318789 251.416056 251.517658 251.624402 251.736889 251.855484 251.980296 252.111177 252.247721 252.389287 252.535022 252.683899 252.795407 252.909995 253.028646 253.152169 253.281165 253.415997 253.556770 253.703330 253.855267 254.011931 254.172461 254.335821 254.461310 254.589556 254.721541 254.858076 254.999761 255.146958 255.299771 255.458044 255.621364 255.789076 255.960316 256.134042 256.269408 256.407183 256.548352 256.693727 256.843910 256.999261 257.159885 257.325623 257.496060 257.670539 257.848188 258.027963 258.168851 258.311784 258.457750 258.607564 258.761830 258.920910 259.084908 259.253664 259.426761 259.603539 259.783124 259.964465 260.106382 260.249974 260.396235 260.545983 260.699825 260.858124 261.020985 261.188250 261.359498 261.534068 261.711084 261.889491 262.028076 262.167966 262.310152 262.455450 262.604464 262.757554 262.914826 263.076118 263.241013 263.408849 263.578754 263.749678 263.879803 264.010910 264.144031 264.280023 264.419526 264.562934 264.710373 264.861699 265.016498 265.174105 265.333629 265.493992 265.614088 265.734855 265.857224 265.981943 266.109544 266.240313 266.374277 266.511200 266.650591 266.791724 266.933665 267.075317 267.174202 267.272745 267.372007 267.472886 267.576077 267.682036 267.790966 267.902805 268.017230 268.133674 268.251348 268.369278 268.446196 268.523431 268.602034 268.682867 268.766565 268.853513 268.943822 269.037331 269.133609 269.231975 269.331528 269.431185 269.488566 269.545987 269.604477 269.664889 269.727860 269.793784 269.862790 269.934742 270.009239 270.085636 270.163068 270.240494 270.275929 270.311347 270.347793 270.386130 270.427003 270.470812 270.517689 270.567499 270.619840 270.674062 270.729298 270.784501 270.797472 270.810406 270.824350 270.840174 270.858530 270.879821 270.904185 270.931489 270.961336 270.993079 271.025855 271.058618 271.049125 271.039628 271.031180 271.024658 271.020716 271.019762 271.021940 271.027120 271.034909 271.044665 271.055525 271.066450 271.035171 271.003974 270.973922 270.945891 270.920544 270.898292 270.879283 270.863390 270.850224 270.839146 270.829300 270.819647 270.768169 270.716902 270.666894 270.619016 270.573921 270.532015 270.493442 270.458080 270.425543 270.395201 270.366209 270.337548 270.266388 270.195667 270.126507 270.059848 269.996407 269.936645 269.880750 269.828627 269.779902 269.733939 269.689869 269.646624 269.563022 269.480106 269.398795 269.319819 269.243683 269.170644 269.100697 269.033575 268.968760 268.905503 268.842858 268.779724 268.672659 268.565169 268.458408 268.353373 268.250865 268.151451 268.055451 267.962919 267.873650 267.787192 267.702867 267.619811 267.497127 267.375978 267.257482 267.142558 267.031891 266.925904 266.824741 266.728266 266.636066 266.547479 266.461617 266.377412 266.252151 266.128558 266.007702 265.890472 265.777542 265.669343 265.566046 265.467552 265.373503 265.283295 265.196108 265.110946 264.986052 264.863274 264.743691 264.628199 264.517476 264.411953 264.311797 264.216902 264.126900 264.041176 263.958896 263.879049 263.759661 263.642781 263.529482 263.420658 263.316985 263.218891 263.126539 263.039823 262.958372 262.881570 262.808581 262.738392 262.629077 262.522630 262.420120 262.322438 262.230256 262.143997 262.063823 261.989623 261.921024 261.857407 261.797932 261.741585 261.646477 261.554554 261.466881 261.384344 261.307610 261.237099 261.172966 261.115099 261.063119 261.016404 260.974111 260.935220 260.857566 260.783378 260.713730 260.649520 260.591423 260.539863 260.495000 260.456718 260.424632 260.398109 260.376291 260.358137 260.302469 260.250418 260.202971 260.160941 260.124925 260.095281 260.072117 260.055280 260.044372 260.038763 260.037626 260.039973 260.002709 259.969170 259.940581 259.918001 259.902272 259.893996 259.893500 259.900836 259.915772 259.937812 259.966215 260.000031 259.998867 260.003108 260.013699 260.031376 260.056629 260.089686 260.130491 260.178708 260.233734 260.294717 260.360596 260.430138 260.459961 260.493191 260.530810 260.573643 260.622313 260.677214 260.738493 260.806039 260.879487 260.958234 261.041460 261.128172 261.177153 261.229653 261.286710 261.349176 261.417684 261.492613 261.574076 261.661910 261.755683 261.854715 261.958105 262.064767 262.132357 262.203145 262.278151 262.358216 262.443961 262.535763 262.633732 262.737709 262.847269 262.961741 263.080233 263.201675 263.283961 263.369128 263.458195 263.552000 263.651165 263.756062 263.866799 263.983216 264.104883 264.231126 264.361050 264.493579 264.586524 264.682000 264.781026 264.884441 264.992864 265.106669 265.225963 265.350581 265.480095 265.613825 265.750876 265.890166 265.989416 266.090829 266.195428 266.304051 266.417319 266.535606 266.659019 266.787394 266.920301 267.057059 267.196771 267.338353 267.439929 267.543275 267.649384 267.759072 267.872942 267.991349 268.114390 268.241899 268.373446 268.508362 268.645765 268.784598 268.881258 268.979411 269.080194 269.184559 269.293229 269.406667 269.525050 269.648262 269.775894 269.907258 270.041414 270.177206 270.274122 270.372237 270.472289 270.574813 270.680117 270.788256 270.899029 271.011978 271.126403 271.241389 271.355842 271.468536 271.534308 271.598282 271.661660 271.725512 271.790730 271.857988 271.927723 272.000112 272.075074 272.152275 272.231149 272.310932 272.351295 272.392927 272.436964 272.484326 272.535680 272.591417 272.651629 272.716115 272.784386 272.855688 272.929039 273.003268 273.034248 273.065970 273.099476 273.135636 273.175103 273.218288 273.265339 273.316135 273.370293 273.427181 273.485948 273.545564 273.563594 273.582507 273.603377 273.627096 273.654334 273.685506 273.720761 273.759967 273.802727 273.848387 273.896073 273.944723 273.951290 273.958837 273.968444 273.981009 273.997204 274.017451 274.041898 274.070418 274.102615 274.137836 274.175206 274.213668 274.210090 274.207625 274.207355 274.210183 274.216784 274.227582 274.242729 274.262099 274.285295 274.311668 274.340341 274.370257 274.358213 274.347436 274.339016 274.333854 274.332631 274.335771 274.343428 274.355478 274.371524 274.390914 274.412776 274.436047 274.417268 274.399937 274.385157 274.373844 274.366686 274.364118 274.366298 274.373103 274.384136 274.398742 274.416038 274.434952 274.412598 274.391838 274.373724 274.359119 274.348669 274.342767 274.341541 274.344848 274.352284 274.363200 274.376733 274.391850 274.364367 274.338641 274.315878 274.297109 274.283140 274.274525 274.271541 274.274177 274.282141 274.294871 274.311562 274.331207 274.311351 274.294466 274.281581 274.273520 274.270863 274.273922 274.282727 274.297020 274.316265 274.339674 274.366235 274.394758 274.380827 274.368721 274.359496 274.354037 274.353011 274.356844 274.365698 274.379463 274.397762 274.419968 274.445231 274.472517 274.458820 274.447203 274.438759 274.434394 274.434781 274.440339 274.451207 274.467242 274.488027 274.512885 274.540912 274.571018 274.559473 274.549998 274.543672 274.541394 274.543832 274.551401 274.564241 274.582213 274.604902 274.631639 274.661528 274.693486 274.683971 274.676523 274.672222 274.671963 274.676414 274.685988 274.700823 274.720778 274.745436 274.774127 274.805951 274.839825 274.832187 274.826591 274.824118 274.825659 274.831883 274.843199 274.859744 274.881376 274.907677 274.937973 274.971364 275.006765 275.000598 274.996429 274.995337 274.998214 275.005725 275.018279 275.036013 275.058780 275.086163 275.