New loadshape.LS_PhaseA npts=17280 sinterval=5 pmult=(620.069214 619.993278 619.922681 619.860921 619.811050 619.775568 619.756350 619.754586 619.770762 619.804660 619.855395 619.921470 620.000870 619.996914 620.006717 620.032758 620.077004 620.140824 620.224939 620.329384 620.453509 620.596006 620.754957 620.927919 621.112022 621.205699 621.309838 621.426663 621.558003 621.705196 621.869021 622.049656 622.246662 622.458991 622.685028 622.922647 623.169303 623.326903 623.493273 623.670716 623.861105 624.065793 624.285545 624.520493 624.770127 625.033305 625.308297 625.592849 625.884280 626.082500 626.287176 626.500584 626.724578 626.960490 627.209069 627.470436 627.744068 628.028819 628.322952 628.624214 628.929924 629.140327 629.354740 629.575426 629.804227 630.042468 630.290891 630.549615 630.818118 631.095257 631.379302 631.668009 631.958710 632.152002 632.346859 632.545544 632.749897 632.961244 633.180333 633.407290 633.641605 633.882149 634.127209 634.374563 634.621564 634.774079 634.925589 635.078082 635.233149 635.391908 635.554948 635.722298 635.893423 636.067239 636.242162 636.416174 636.586906 636.644795 636.700396 636.757049 636.817644 636.884486 636.959181 637.042547 637.134565 637.234352 637.340171 637.449477 637.558985 637.590690 637.618719 637.642491 637.660830 637.671957 637.673516 637.662617 637.635922 637.589739 637.520144 637.423127 637.294739 637.013108 636.700122 636.359706 635.995850 635.612454 635.213185 634.801362 634.379852 633.950997 633.516564 633.077724 632.635055 632.115251 631.595527 631.079123 630.568548 630.065499 629.570830 629.084534 628.605776 628.132943 627.663730 627.195258 626.724208 626.141639 625.555533 624.968196 624.381595 623.797269 623.216263 622.639091 622.065711 621.495539 620.927474 620.359956 619.791042 619.129668 618.467590 617.807380 617.151198 616.500700 615.856979 615.220523 614.591201 613.968282 613.350473 612.735988 612.122633 611.414630 610.708237 610.006035 609.310194 608.622383 607.943706 607.274665 606.615149 605.964444 605.321277 604.683883 604.050092 603.324548 602.603111 601.888363 601.182475 600.487117 599.803398 599.131826 598.472296 597.824104 597.185986 596.556190 595.932557 595.220124 594.514360 593.817838 593.132719 592.460668 591.802789 591.159584 590.530946 589.916169 589.313992 588.722662 588.140023 587.468206 586.805735 586.155352 585.519373 584.899594 584.297218 583.712811 583.146285 582.596909 582.063345 581.543716 581.035692 580.452229 579.879928 579.320618 578.775736 578.246279 577.732767 577.235237 576.753257 576.285965 575.832129 575.390230 574.958558 574.429589 573.913628 573.415093 572.938113 572.486385 572.063055 571.670620 571.310850 570.984749 570.692540 570.433682 570.206909 569.934338 569.694022 569.487358 569.315020 569.176915 569.072167 568.999133 568.955449 568.938101 568.943524 568.967730 569.006444 568.949861 568.905341 568.874720 568.859641 568.861461 568.881167 568.919318 568.976007 569.050846 569.142977 569.251102 569.373541 569.424530 569.490595 569.574173 569.677250 569.801272 569.947084 570.114886 570.304230 570.514035 570.742635 570.987844 571.247061 571.422874 571.612319 571.817637 572.040668 572.282762 572.544715 572.826733 573.128413 573.448760 573.786224 574.138763 574.503929 574.787626 575.083677 575.394298 575.721301 576.066013 576.429205 576.811056 577.211139 577.628433 578.061361 578.507853 578.965436 579.339827 579.724974 580.123073 580.535921 580.964821 581.410529 581.873203 582.352395 582.847065 583.355612 583.875946 584.405567 584.849956 585.303254 585.767645 586.244913 586.736353 587.242706 587.764117 588.300124 588.849671 589.411143 589.982429 590.561014 591.053796 591.553379 592.061845 592.580885 593.111712 593.655001 594.210851 594.778777 595.357719 595.946088 596.541822 597.142478 597.649144 598.160773 598.679916 599.208712 599.748782 600.301146 600.866170 601.443536 602.032239 602.630620 603.236415 603.846842 604.373500 604.903115 605.436879 605.975519 606.519235 607.067667 607.619888 608.174419 608.729268 609.282004 609.829842 610.369751 610.797598 611.217190 611.631296 612.042447 612.452824 612.864166 613.277704 613.694115 614.113501 614.535402 614.958824 615.382299 615.718142 616.055064 616.395602 616.741780 617.095019 617.456079 617.825036 618.201274 618.583516 618.969877 619.357946 619.744889 620.030182 620.313689 620.597639 620.883878 621.173782 621.468189 621.767363 622.070969 622.378091 622.687263 622.996533 623.303545 623.513627 623.721391 623.929174 624.138909 624.352025 624.569393 624.791274 625.017315 625.246553 625.477462 625.708015 625.935772 626.064100 626.189532 626.314429 626.440747 626.569939 626.702894 626.839894 626.980604 627.124081 627.268815 627.412797 627.553604 627.594509 627.632191 627.669036 627.707021 627.747621 627.791746 627.839698 627.891160 627.945208 628.000352 628.054602 628.105554 628.056462 628.004077 627.950808 627.898650 627.849101 627.803089 627.760936 627.722345 627.686411 627.651664 627.616133 627.577435 627.439197 627.297833 627.155753 627.014954 626.876938 626.742640 626.612394 626.485917 626.362327 626.240178 626.117533 625.992046 625.766460 625.538224 625.309850 625.083433 624.860565 624.642261 624.428920 624.220310 624.015577 623.813284 623.611476 623.407768 623.107098 622.804449 622.502092 622.201874 621.905136 621.612650 621.324591 621.040527 620.759437 620.479760 620.199464 619.916138 619.532155 619.145344 618.758268 618.373110 617.991578 617.614840 617.243475 616.877457 616.516165 616.158414 615.802520 615.446377 614.995746 614.545345 614.097700 613.654902 613.218527 612.789569 612.368404 611.954782 611.547840 611.146148 610.747778 610.350393 609.857821 609.366424 608.878665 608.396601 607.921799 607.455266 606.997417 606.548056 606.106393 605.671086 605.240299 604.811798 604.290906 603.772604 603.259366 602.753257 602.255847 601.768146 601.290567 600.822912 600.364387 599.913643 599.468841 599.027739 598.495743 597.967739 597.446193 596.933163 596.430213 595.938349 595.457982 594.988916 594.530359 594.080967 593.638909 593.201950 592.675905 592.155247 591.642428 591.139496 590.648003 590.168950 589.702741 589.249178 588.807468 588.376270 587.953753 587.537688 587.034288 586.537612 586.050097 585.573775 585.110187 584.660321 584.224574 583.802741 583.394024 582.997080 582.610078 582.230789 581.764904 581.307029 580.859630 580.424770 580.004013 579.598366 579.208235 578.833413 578.473093 578.125905 577.789983 577.463049 577.054011 576.653937 576.265029 575.889097 575.527474 575.180970 574.849838 574.533770 574.231916 573.942935 573.665053 573.396161 573.039782 572.693231 572.359406 572.040838 571.739592 571.457186 571.194539 570.951939 570.729045 570.524905 570.338014 570.166382 569.921824 569.692627 569.480852 569.288076 569.115315 568.962979 568.830846 568.718068 568.623197 568.544241 568.478747 568.423897 568.282917 568.151945 568.033148 567.928356 567.838972 567.765906 567.709528 567.669654 567.645546 567.635948 567.639134 567.652991 567.587405 567.532707 567.491220 567.464859 567.455041 567.462631 567.487894 567.530491 567.589491 567.663409 567.750273 567.847712 567.862469 567.887687 567.925629 567.978161 568.046669 568.131996 568.234406 568.353564 568.488556 568.637924 568.799730 568.971638 569.061278 569.160917 569.272804 569.398793 569.540257 569.698030 569.872361 570.062904 570.268734 570.488379 570.719888 570.960909 571.118952 571.286373 571.465412 571.657915 571.865249 572.088235 572.327117 572.581538 572.850561 573.132704 573.426002 573.728093 573.946291 574.173119 574.410814 574.661219 574.925695 575.205060 575.499548 575.808798 576.131864 576.467254 576.812991 577.166701 577.437162 577.715323 578.003323 578.302913 578.615376 578.941468 579.281380 579.634728 580.000568 580.377435 580.763405 581.156178 581.458636 581.768170 582.087395 582.418517 582.763235 583.122653 583.497232 583.886757 584.290338 584.706437 585.132923 585.567149 585.922577 586.284269 586.653463 587.030930 587.416928 587.811161 588.212773 588.620367 589.032049 589.445489 589.858016 590.266724 590.569044 590.867408 591.164638 591.463328 591.765730 592.073661 592.388443 592.710851 593.041095 593.378829 593.723183 594.072818 594.341621 594.616909 594.901268 595.196772 595.504896 595.826467 596.161624 596.509829 596.869884 597.239990 597.617829 598.000659 598.289161 598.582119 598.881800 599.190089 599.508407 599.837644 600.178114 600.529547 600.891091 601.261351 601.638448 602.020100 602.312578 602.609633 602.913632 603.226534 603.549802 603.884339 604.230447 604.587812 604.955515 605.332076 605.715512 606.103429 606.399733 606.700445 607.007946 607.324204 607.650690 607.988311 608.337370 608.697548 609.067921 609.446997 609.832780 610.222861 610.520591 610.822543 611.131105 611.448256 611.775471 612.113662 612.463127 612.823545 613.193982 613.572935 613.958394 614.347931 614.644356 614.944776 615.251590 615.566781 615.891831 616.227651 616.574536 616.932160 617.299578 617.675275 618.057224 618.442981 618.733016 619.026862 619.327030 619.635605 619.954154 620.283650 620.624428 620.976171 621.337917 621.708098 622.084609 622.464894 622.754825 623.047935 623.346244 623.651364 623.964429 624.286041 624.616248 624.954542 625.299890 625.650780 626.005301 626.361238 626.612457 626.866324 627.126331 627.395612 627.676830 627.972069 628.282762 628.609643 628.952725 629.311316 629.684053 630.068970 630.376025 630.695074 631.027947 631.375874 631.739419 632.118438 632.512069 632.918747 633.336253 633.761786 634.192064 634.623446 634.947722 635.271499 635.596874 635.925642 636.259194 636.598444 636.943775 637.295007 637.651400 638.011674 638.374063 638.736383 639.003620 639.271030 639.541071 639.815751 640.096535 640.384278 640.679182 640.980787 641.287982 641.599056 641.911766 642.223432 642.432463 642.640119 642.848776 643.060384 643.276376 643.497605 643.724296 643.956036 644.191785 644.429920 644.668300 644.904358 645.038405 645.169923 645.301296 645.434483 645.570927 645.711488 645.856403 646.005268 646.157055 646.310152 646.462431 646.611338 646.657285 646.699694 646.740958 646.783048 646.827419 646.874946 646.925876 646.979822 647.035772 647.092132 647.146792 647.197221 647.144038 647.086505 647.027029 646.967594 646.909671 646.854147 646.801290 646.750730 646.701477 646.651960 646.600095 646.543379 646.385341 646.222251 646.056381 645.889594 645.723257 645.558187 645.394610 645.232153 645.069865 644.906254 644.739360 644.566843 644.284255 643.996748 643.707316 643.418517 643.132356 642.850193 642.572684 642.299739 642.030523 641.763477 641.496375 641.226407 640.866145 640.501163 640.132379 639.760194 639.384451 639.004414 638.618775 638.225693 637.822851 637.407543 636.976778 636.527405 635.949097 635.352412 634.740653 634.116958 633.484178 632.844772 632.200728 631.553498 630.903975 630.252476 629.598772 628.942126 628.198376 627.453993 626.711909 625.974472 625.243364 624.519549 623.803255 623.093974 622.390508 621.691026 620.993162 620.294125 619.491330 618.687096 617.883851 617.083646 616.288069 615.498183 614.714488 613.936899 613.164764 612.396899 611.631643 610.866948 610.010198 609.154616 608.302753 607.456751 606.618249 605.788328 604.967468 604.155536 603.351804 602.554989 601.763318 600.974618 600.094296 599.217430 598.346560 597.483814 596.630828 595.788678 594.957843 594.138196 593.329019 592.529041 591.736503 590.949253 590.073448 589.203413 588.341667 587.490322 586.650998 585.824759 585.012081 584.212832 583.426297 582.651209 581.885819 581.127985 580.284595 579.449223 578.624359 577.812092 577.014020 576.231190 575.464063 574.712501 573.975780 573.252632 572.541310 571.839674 571.053158 570.276865 569.513378 568.764865 568.032995 567.318868 566.622975 565.945182 565.284742 564.640338 564.010137 563.391886 562.698610 562.017073 561.349231 560.696657 560.060474 559.441317 558.839317 558.254105 557.684844 557.130280 556.588820 556.058619 555.439608 554.833748 554.244685 553.675746 553.129822 552.609269 552.115830 551.650581 551.213912 550.805527 550.424478 550.069214 549.659615 549.275946 548.919844 548.592338 548.293806 548.023936 547.781731 547.565532 547.373074 547.201558 547.047760 546.908144 546.681892 546.468218 546.269027 546.085975 545.920379 545.773144 545.644716 545.535049 545.443604 545.369365 545.310881 545.266327 545.151062 545.050216 544.966076 544.900507 544.854875 544.829980 544.826023 544.842596 544.878700 544.932781 545.002805 545.086340 545.091344 545.109579 545.143187 545.193926 545.263086 545.351429 545.459150 545.585869 545.730638 545.891980 546.067954 546.256230 546.367199 546.490242 546.627473 546.780623 546.950956 547.139212 547.345564 547.569611 547.810386 548.066394 548.335677 548.615887 548.817502 549.029764 549.254767 549.494221 549.749371 550.020938 550.309082 550.613383 550.932861 551.266007 551.610848 551.965024 552.239026 552.522045 552.816159 553.123065 553.443998 553.779666 554.130217 554.495223 554.873693 555.264110 555.664489 556.072462 556.400205 556.735107 557.079141 557.433908 557.800557 558.179732 558.571534 558.975515 559.390687 559.815563 560.248216 560.686359 561.036469 561.392186 561.755957 562.129835 562.515384 562.913601 563.324858 563.748879 564.184735 564.630874 565.085167 565.544990 565.927704 566.314319 566.705892 567.103039 567.505874 567.913989 568.326439 568.741767 569.158043 569.572930 569.983772 570.387695 570.686218 570.977561 571.264380 571.549121 571.833912 572.120476 572.410064 572.703412 573.000719 573.301657 573.605391 573.910643 574.135791 574.363565 574.596384 574.836175 575.084290 575.341455 575.607746 575.882583 576.164763 576.452509 576.743548 577.035211 577.232922 577.430645 577.630480 577.834169 578.043016 578.257820 578.478846 578.705798 578.937836 579.173610 579.411310 579.648752 579.797371 579.945718 580.095998 580.250036 580.409186 580.574275 580.745563 580.922729 581.104886 581.290615 581.478029 581.664855 581.760563 581.855614 581.952234 582.052262 582.157073 582.267510 582.383846 582.505776 582.632425 582.762389 582.893792 583.024372 583.063498 583.101771 583.141434 583.184345 583.231894 583.284939 583.343768 583.408091 583.477045 583.549238 583.622808 583.695505 583.676635 583.656897 583.638553 583.623475 583.613067 583.608201 583.609180 583.615724 583.626986 583.641584 583.657669 583.673003 583.596427 583.519165 583.443516 583.371390 583.304224 583.242918 583.187797 583.138599 583.094484 583.054075 583.015517 582.976562 582.847539 582.718068 582.590339 582.466154 582.346853 582.233257 582.125629 582.023673 581.926545 581.832896 581.740934 581.648512 581.463173 581.277804 581.094964 580.916841 580.745160 580.581115 580.425324 580.277805 580.137986 580.004731 579.876398 579.750916 579.540029 579.332096 579.129265 578.933257 578.745283 578.565990 578.395436 578.233078 578.077800 577.927957 577.781445 577.635789 577.398477 577.161794 576.927961 576.698840 576.475851 576.259910 576.051388 575.850096 575.655293 575.465721 575.279663 575.095020 574.822812 574.552263 574.285681 574.024982 573.771604 573.526450 573.289850 573.061548 572.840720 572.626006 572.415579 572.207227 571.910604 571.616165 571.326194 571.042587 570.766774 570.499656 570.241570 569.992275 569.750966 569.516311 569.286515 569.059401 568.745363 568.434148 568.128033 567.828913 567.538216 567.256841 566.985126 566.722831 566.469157 566.222778 565.981904 565.744367 565.420840 565.100793 564.786500 564.479848 564.182262 563.894639 563.617317 563.350057 563.092061 562.842009 562.598116 562.358221 562.033285 561.712490 561.398101 561.092001 560.795608 560.509816 560.234961 559.970805 559.716551 559.470882 559.232018 558.997802 558.680021 558.366999 558.060962 557.763755 557.476768 557.200870 556.936381 556.683056 556.440102 556.206214 555.979635 555.758240 555.452339 555.151901 554.859287 554.576477 554.304979 554.045769 553.799247 553.565218 553.342907 553.130988 552.927645 552.730648 552.453993 552.183405 551.920803 551.667704 551.425156 551.193686 550.973276 550.763359 550.562842 550.370153 550.183308 550.000000 549.729557 549.462777 549.202059 548.949478 548.706694 548.474889 548.254717 548.046288 547.849165 547.662396 547.484560 547.313844 547.065061 546.823924 546.592744 546.373419 546.167354 545.975408 545.797860 545.634400 545.484146 545.345687 545.217149 545.096279 544.894049 544.699447 544.514665 544.341528 544.181412 544.035184 543.903167 543.785129 543.680289 543.587359 543.504598 543.429893 543.276224 543.130720 542.995590 542.872667 542.763326 542.668428 542.588282 542.522631 542.470669 542.431073 542.402066 542.381494 542.281801 542.190595 542.110074 542.042059 541.987915 541.948492 541.924088 541.914438 541.918723 541.935610 541.963312 541.999663 541.957082 541.923173 541.900120 541.889735 541.893373 541.911871 541.945518 541.994037 542.056597 542.131855 542.218008 542.312881 542.328808 542.353443 542.388962 542.437165 542.499397 542.576486 542.668708 542.775774 542.896844 543.030558 543.175102 543.328283 543.401506 543.483367 543.576078 543.681471 543.800919 543.935267 544.084799 544.249224 544.427682 544.618786 544.820677 545.031108 545.163859 545.304862 545.456105 545.619206 545.795340 545.985182 546.188882 546.406059 546.635813 546.876774 547.127160 547.384861 547.558381 547.739702 547.931446 548.135891 548.354869 548.589697 548.841123 549.109297 549.393774 549.693529 550.007012 550.332214 550.584534 550.848419 551.125767 551.418020 551.726094 552.050332 552.390475 552.745668 553.114484 553.494972 553.884739 554.281033 554.591159 554.907024 555.230638 555.563687 555.907446 556.262713 556.629767 557.008349 557.397670 557.796434 558.202896 558.614930 558.945336 559.281311 559.625026 559.978261 560.342323 560.717984 561.105442 561.504313 561.913640 562.331934 562.757231 563.187182 563.531418 563.880044 564.235201 564.598647 564.971678 565.355067 565.749021 566.153175 566.566598 566.987831 567.414948 567.845638 568.189997 568.537713 568.890937 569.251439 569.620525 569.998973 570.386998 570.784237 571.189760 571.602107 572.019352 572.439178 572.771314 573.105830 573.444892 573.790286 574.143329 574.504811 574.874956 575.253406 575.639238 576.030993 576.426746 576.824180 577.132659 577.442640 577.756309 578.075469 578.401453 578.735066 579.076543 579.425535 579.781127 580.141867 580.505833 580.870713 581.147505 581.424954 581.705152 581.989818 582.280215 582.577091 582.880650 583.190537 583.505854 583.825201 584.146732 584.468240 584.693924 584.920010 585.149160 585.383637 585.625198 585.875018 586.133627 586.400883 586.675968 586.957415 587.243156 587.530602 587.736303 587.942154 588.149237 588.358170 588.569055 588.781459 588.994403 589.206393 589.415464 589.619247 589.815070 590.000061 590.072386 590.133911 590.187568 590.236089 590.281900 590.327025 590.373019 590.420914 590.471197 590.523813 590.578190 590.633288 590.606552 590.582159 590.562771 590.550530 590.546972 590.552981 590.568758 590.593825 590.627053 590.666721 590.710594 590.756032 590.705465 590.656098 590.610225 590.569772 590.536219 590.510529 590.493112 590.483811 590.481906 590.486157 590.494851 590.505893 590.428492 590.353737 590.284040 590.221412 590.167383 590.122936 590.088468 590.063779 590.048081 590.040042 590.037844 590.039272 589.951119 589.866794 589.788715 589.718905 589.658898 589.609683 589.571658 589.544622 589.527786 589.519810 589.518870 589.522740 589.437898 589.358063 589.285661 589.222717 589.170768 589.130799 589.103209 589.087788 589.083740 589.089714 589.103874 589.123979 589.056185 588.994518 588.941402 588.898862 588.868429 588.851087 588.847221 588.856615 588.878458 588.911384 588.953539 589.002664 588.962486 588.929542 588.906374 588.895110 588.897370 588.914198 588.946020 588.992622 589.053168 589.126228 589.209853 589.301653 589.311812 589.329694 589.357260 589.396076 589.447252 589.511391 589.588576 589.678366 589.779830 589.891599 590.011939 590.138845 590.168808 590.206962 590.256947 590.322072 590.405194 590.508614 590.633998 590.782325 590.953862 591.148171 591.364139 591.600037 591.771018 591.961876 592.174313 592.409424 592.667628 592.948638 593.251455 593.574390 593.915118 594.270753 594.637951 595.013035 595.290195 595.573506 595.864966 596.166300 596.478868 596.803588 597.140881 597.490642 597.852236 598.224515 598.605866 598.994275 599.299087 599.611302 599.933316 600.267086 600.614039 600.975006 601.350184 601.739122 602.140740 602.553370 602.974827 603.402502 603.737968 604.079282 604.428727 604.788176 605.159004 605.542022 605.937432 606.344822 606.763169 607.190883 607.625875 608.065636 608.413674 608.766200 609.125494 609.493423 609.871357 610.260100 610.659847 611.070176 611.490054 611.917881 612.351554 612.788554 613.132145 613.478770 613.830709 614.189830 614.557501 614.934523 615.321091 615.716777 616.120545 616.530788 616.945398 617.361849 617.683206 618.006113 618.332855 618.665306 619.004836 619.352251 619.707747 620.070897 620.440666 620.815449 621.193138 621.571206 621.854929 622.138631 622.424471 622.714204 623.009105 623.309901 623.616742 623.929184 624.246211 624.566272 624.887347 625.207037 625.422882 625.637734 625.854408 626.075291 626.302232 626.536449 626.778471 627.028103 627.284418 627.545787 627.809929 628.073995 628.250520 628.425011 628.598396 628.771103 628.943012 629.113429 629.281095 629.444207 629.600483 629.747233 629.881464 630.000000 629.994029 629.972287 629.937881 629.893734 629.842467 629.786296 629.726953 629.665633 629.602961 629.538990 629.473226 629.404673 629.247839 629.090025 628.934008 628.781999 628.635558 628.495542 628.362080 628.234580 628.111756 627.991698 627.871953 627.749646 627.522040 627.291338 627.059868 626.829581 626.601960 626.377959 626.157955 625.941742 625.728530 625.516989 625.305308 625.091274 624.780803 624.468253 624.156081 623.846331 623.540545 623.239697 622.944158 622.653676 622.367395 622.083896 621.801260 621.517160 621.135336 620.752229 620.370302 619.991603 619.617680 619.249516 618.887488 618.531356 618.180278 617.832849 617.487166 617.140920 616.698237 616.255200 615.814268 615.377492 614.946418 614.522035 614.104724 613.694252 613.289788 612.889937 612.492812 612.096120 611.604438 611.113415 610.625503 610.142746 609.666690 609.198318 608.738015 608.285553 607.840104 607.400286 606.964221 606.529631 605.999945 605.472055 604.948498 604.431395 603.922356 603.422420 602.932006 602.450904 601.978281 601.512727 601.052317 600.594698 600.049246 599.506369 598.968130 598.436202 597.911786 597.395574 596.887720 596.387845 595.895061 595.408026 594.925013 594.444005 593.864427 593.288307 592.719029 592.159632 591.612698 591.080262 590.563739 590.063883 589.580773 589.113824 588.661830 588.223022 587.712538 587.215386 586.733402 586.267860 585.819406 585.388023 584.973020 584.573051 584.186156 583.809837 583.441147 583.076808 582.616321 582.159020 581.706957 581.261895 580.825217 580.397858 579.980257 579.572331 579.173476 578.782593 578.398131 578.018162 577.555182 577.097192 576.646544 576.205168 575.774491 575.355377 574.948088 574.552276 574.167000 573.790767 573.421601 573.057131 572.604698 572.156904 571.715991 571.283806 570.861725 570.450588 570.050666 569.661646 569.282647 568.912258 568.548599 568.189409 567.744561 567.304203 566.870551 566.445432 566.030204 565.625697 565.232173 564.849318 564.476255 564.111581 563.753429 563.399555 562.960619 562.525974 562.097814 561.677948 561.267718 560.867945 560.478886 560.100230 559.731103 559.370115 559.015414 558.664774 558.229645 557.798590 557.373781 556.957011 556.549612 556.152396 555.765620 555.388974 555.021594 554.662104 554.308668 553.959082 553.527303 553.099298 552.677124 552.262470 551.856580 551.460201 551.073549 550.696305 550.327623 549.966177 549.610214 549.257637 548.817600 548.381441 547.951673 547.530423 547.119341 546.719520 546.331449 545.954986 545.589359 545.233190 544.884549 544.541029 544.123486 543.709824 543.301157 542.898161 542.501035 542.109466 541.722631 541.339215 540.957457 540.575213 540.190045 539.799316 539.309002 538.813242 538.314716 537.815904 537.318986 536.825760 536.337580 535.855312 535.379319 534.909461 534.445128 533.985284 533.453512 532.927696 532.410254 531.903129 531.407711 530.924798 530.454565 529.996569 529.549779 529.112625 528.683072 528.258720 527.751065 527.248342 526.752624 526.265645 525.788727 525.322724 524.867985 524.424344 523.991128 523.567191 523.150965 522.740536 522.254097 521.773748 521.301637 520.839552 520.388844 519.950372 519.524470 519.110935 518.709039 518.317568 517.934875 517.558960 517.106697 516.661410 516.225234 515.799946 515.386892 514.986924 514.600374 514.227041 513.866199 513.516640 513.176725 512.844462 512.437153 512.037683 511.648173 511.270390 510.905667 510.554853 510.218274 509.895725 509.586483 509.289337 509.002655 508.724447 508.372368 508.028931 507.696243 507.376058 507.069699 506.778005 506.501294 506.239356 505.991463 505.756406 505.532546 505.317896 505.029064 504.749652 504.481830 504.227406 503.987749 503.763735 503.555703 503.363447 503.186227 503.022800 502.871475 502.730193 502.520010 502.319624 502.130828 501.955069 501.793392 501.646391 501.514188 501.396437 501.292343 501.200701 501.119967 501.048330 500.898569 500.758953 500.632320 500.521208 500.427750 500.353604 500.299886 500.267141 500.255327 500.263830 500.291498 500.336700 500.324156 500.329132 500.353248 500.397644 500.462922 500.549113 500.655662 500.781440 500.924780 501.083535 501.255156 501.436795 501.540158 501.652462 501.775506 501.910826 502.059611 502.222648 502.400272 502.592349 502.798273 503.016990 503.247039 503.486617 503.656994 503.837121 504.029045 504.234445 504.454554 504.690103 504.941288 505.207756 505.488624 505.782511 506.087597 506.401703 506.641194 506.889470 507.148510 507.419940 507.704962 508.004295 508.318138 508.646164 508.987524 509.340885 509.704484 510.076205 510.373502 510.678733 510.993876 511.320557 511.659977 512.012851 512.379376 512.759217 513.151517 513.554935 513.967696 514.387670 514.731950 515.083240 515.443524 515.814432 516.197167 516.592446 517.000465 517.420885 517.852845 518.294995 518.745550 519.202369 519.582123 519.967932 520.361787 520.765330 521.179769 521.605827 522.043701 522.493053 522.953018 523.422240 523.898928 524.380930 524.786368 525.196808 525.614148 526.039938 526.475313 526.920933 527.376956 527.843028 528.318293 528.801430 529.290711 529.784073 530.192879 530.606086 531.026135 531.455099 531.894584 532.345655 532.808778 533.283794 533.769915 534.265745 534.769327 535.278215 535.715460 536.156396 536.601935 537.052557 537.508268 537.968573 538.432475 538.898501 539.364744 539.828928 540.288499 540.740723 541.090604 541.433037 541.770721 542.106179 542.441655 542.779030 543.119744 543.464760 543.814531 544.169003 544.527640 544.889461 545.177769 545.470678 545.770631 546.079581 546.398913 546.729401 547.071177 547.423737 547.785963 548.156184 548.532244 548.911605 549.202699 549.496579 549.795334 550.100714 550.414049 550.736190 551.067470 551.407689 551.756120 552.111545 552.472303 552.836370 553.118346 553.403750 553.694790 553.993304 554.300676 554.617777 554.944926 555.281880 555.627840 555.981494 556.341067 556.704410 556.983394 557.266169 557.554962 557.851627 558.157560 558.473640 558.800190 559.136963 559.483156 559.837444 560.198039 560.562772 560.842809 561.127003 561.417599 561.716463 562.025001 562.344095 562.674069 563.014672 563.365090 563.723984 564.089550 564.459597 564.744583 565.034061 565.330288 565.635141 565.950030 566.275841 566.612893 566.960928 567.319121 567.686115 568.060085 568.438817 568.729774 569.025611 569.328729 569.641130 569.964335 570.299307 570.646415 571.005412 571.375448 571.755101 572.142440 572.535112 572.847322 573.164220 573.487585 573.818827 574.158917 574.508351 574.867131 575.234771 575.610325 575.992440 576.379426 576.769353 577.061168 577.357577 577.662216 577.978416 578.309076 578.656560 579.022617 579.408323 579.814051 580.239475 580.683590 581.144775 581.542129 581.956403 582.389138 582.841259 583.313018 583.803967 584.312953 584.838147 585.377100 585.926818 586.483867 587.044502 587.504690 587.966511 588.431843 588.902321 589.379242 589.863486 590.355469 590.855105 591.361801 591.874474 592.391594 592.911239 593.345767 593.783177 594.225805 594.675555 595.133814 595.601387 596.078456 596.564573 597.058671 597.559112 598.063751 598.570029 598.981673 599.394571 599.810952 600.232648 600.661005 601.096820 601.540301 601.991053 602.448086 602.909861 603.374348 603.839112 604.209894 604.580701 604.953779 605.330970 605.713631 606.102568 606.497996 606.899522 607.306161 607.716375 608.128132 608.538998 608.854381 609.168646 609.484055 609.802467 610.125255 610.453236 610.786636 611.125074 611.467572 611.812598 612.158129 612.501734 612.748559 612.993269 613.238147 613.485072 613.735434 613.990069 614.249218 614.512514 614.778993 615.047136 615.314932 615.579963 615.751192 615.919301 616.086363 616.254071 616.423654 616.595827 616.770757 616.948054 617.126795 617.305558 617.482492 617.655399 617.720137 617.781847 617.843723 617.908531 617.978481 618.055125 618.139277 618.230971 618.329439 618.433127 618.539741 618.646319 618.674159 618.698965 618.720728 618.738885 618.752302 618.759281 618.757594 618.744547 618.717058 618.671770 618.605169 618.513733 618.282434 618.026475 617.749537 617.455288 617.147240 616.828626 616.502295 616.170624 615.835465 615.498104 615.159258 614.819094 614.401997 613.986928 613.577009 613.174690 612.781680 612.398900 612.026468 611.663718 611.309248 610.960997 610.616347 610.272249 609.823574 609.374785 608.928234 608.485923 608.049417 607.619786 607.197558 606.782702 606.374640 605.972274 605.574044 605.178004 604.693326 604.211488 603.735048 603.266154 602.806458 602.357051 601.918425 601.490458 601.072432 600.663069 600.260597 599.862843 599.374805 598.891917 598.416732 597.951395 597.497552 597.056289 596.628091 596.212830 595.809780 595.417655 595.034678 594.658663 594.194653 593.738013 593.291283 592.856595 592.435579 592.029307 591.638250 591.262263 590.900604 590.551972 590.214572 589.886200 589.471929 589.067049 588.674077 588.295119 587.931787 587.585127 587.255586 586.942998 586.646595 586.