New Line.624620608 Phases= 3 Bus1=624620605.1.2.3 Bus2=254433057.1.2.3 Length=23.76  units=m  Spacing=DBL-CKT-10'-&amp;-8'-ARMS-3PH wires=['336-ACSR-B-18X1' '336-ACSR-B-18X1' '336-ACSR-B-18X1' '336-ACSR-B-18X1']
New Line.262290610 Phases= 3 Bus1=254432524.1.2.3 Bus2=262290612.1.2.3 Length=1.53   units=m  Spacing=8'-ARM-NON-CENTER-POST-3PH wires=['1/0-ACSR-B-6X1' '1/0-ACSR-B-6X1' '1/0-ACSR-B-6X1' '1/0-ACSR-B-6X1']
New Line.254448294 Phases= 1 Bus1=254448291.2     Bus2=254448296.2     Length=33.08  units=m  Spacing=VERTICAL-1-PH-60-1PH wires=['2-ACSR-B-6X1' '2-ACSR-B-6X1']
New Line.254460935 Phases= 1 Bus1=254460932.3     Bus2=254460937.3     Length=50.20  units=m  Spacing=VERTICAL-1-PH-60-1PH wires=['2-ACSR-B-6X1' '2-ACSR-B-6X1']
New Line.624542247 Phases= 1 Bus1=262292064.1     Bus2=624542245.1     Length=31.62  units=m  Spacing=VERTICAL-1-PH-60-1PH wires=['2-ACSR-B-6X1' '2-ACSR-B-6X1']
New Line.262290682 Bus1=254433224.1     Bus2=262290684.1     LineCode=1/0-AL-HMWPECN-25KV Phases= 1 Length=1.53   units=m enable=yes
New Line.254454383 Phases= 1 Bus1=254454380.2     Bus2=254454385.2     Length=92.92  units=m  Spacing=VERTICAL-1-PH-60-1PH wires=['2-ACSR-B-6X1' '2-ACSR-B-6X1']
New Line.254454336 Phases= 3 Bus1=254454301.1.2.3 Bus2=254454338.1.2.3 Length=208.60 units=m  Spacing=8'-ARM-NON-CENTER-POST-3PH wires=['1/0-ACSR-B-6X1' '1/0-ACSR-B-6X1' '1/0-ACSR-B-6X1' '1/0-ACSR-B-6X1']
New Line.254437252 Phases= 3 Bus1=254437249.1.2.3 Bus2=254437254.1.2.3 Length=14.23  units=m  Spacing=HORIZ-LINE-POST-3PH wires=['336-ACSR-B-18X1' '336-ACSR-B-18X1' '336-ACSR-B-18X1' '1/0-ACSR-B-6X1']
New Line.624621550 Phases= 3 Bus1=254433329.1.2.3 Bus2=624621548.1.2.3 Length=5.14   units=m  Spacing=8'-ARM-NON-CENTER-POST-3PH wires=['336-ACSR-B-18X1' '336-ACSR-B-18X1' '336-ACSR-B-18X1' '1/0-ACSR-B-6X1']
New Line.254448202 Phases= 3 Bus1=254448199.1.2.3 Bus2=254448204.1.2.3 Length=48.58  units=m  Spacing=8'-ARM-NON-CENTER-POST-3PH wires=['2-ACSR-B-6X1' '2-ACSR-B-6X1' '2-ACSR-B-6X1' '1/0-ACSR-B-6X1']
New Line.259992823 Phases= 3 Bus1=254437363.1.2.3 Bus2=259143373.1.2.3 Length=41.97  units=m  Spacing=8'-ARM-NON-CENTER-POST-3PH wires=['336-ACSR-B-18X1' '336-ACSR-B-18X1' '336-ACSR-B-18X1' '1/0-ACSR-B-6X1']
New Line.251375927 Phases= 3 Bus1=251375924.1.2.3 Bus2=264544545.1.2.3 Length=116.00 units=m  Spacing=8'-ARM-NON-CENTER-POST-3PH wires=['336-AAC-B-19' '336-AAC-B-19' '336-AAC-B-19' '1/0-ACSR-B-6X1']
New Line.254432746 Phases= 3 Bus1=254432743.1.2.3 Bus2=254432748.1.2.3 Length=278.80 units=m  Spacing=8'-ARM-NON-CENTER-POST-3PH wires=['1/0-ACSR-B-6X1' '1/0-ACSR-B-6X1' '1/0-ACSR-B-6X1' '2-ACSR-B-6X1']
New Line.261127619 Bus1=260119326.3     Bus2=261127621.3     LineCode=1/0-AL-TRXLPELCJ-25KV Phases= 1 Length=121.70 units=m enable=yes
New Line.254460214 Phases= 1 Bus1=254460206.3     Bus2=254460216.3     Length=52.98  units=m  Spacing=VERTICAL-1-PH-60-1PH wires=['1/0-ACSR-B-6X1' '1/0-ACSR-B-6X1']
New Line.254448346 Phases= 3 Bus1=254448343.1.2.3 Bus2=254448348.1.2.3 Length=114.40 units=m  Spacing=8'-ARM-NON-CENTER-POST-3PH wires=['336-ACSR-B-18X1' '336-ACSR-B-18X1' '336-ACSR-B-18X1' '1/0-ACSR-B-6X1']
New Line.262298146 Phases= 1 Bus1=262298143.2     Bus2=254460413.2     Length=91.75  units=m  Spacing=VERTICAL-1-PH-60-1PH wires=['4-ACSR-B-6X1' '4-ACSR-B-6X1']
New Line.254438047 Phases= 1 Bus1=254438044.1     Bus2=254438049.1     Length=50.61  units=m  Spacing=VERTICAL-1-PH-60-1PH wires=['1/0-ACSR-B-6X1' '1/0-ACSR-B-6X1']
New Line.254455153 Phases= 1 Bus1=254455150.2     Bus2=254455155.2     Length=42.43  units=m  Spacing=VERTICAL-1-PH-60-1PH wires=['4-ACSR-B-6X1' '4-ACSR-B-6X1']
New Line.624542879 Phases= 1 Bus1=254438418.1     Bus2=624542877.1     Length=125.20 units=m  Spacing=VERTICAL-1-PH-60-1PH wires=['2-ACSR-B-6X1' '2-ACSR-B-6X1']
New Line.254438501 Phases= 3 Bus1=254438493.1.2.3 Bus2=254438503.1.2.3 Length=96.09  units=m  Spacing=8'-ARM-NON-CENTER-POST-3PH wires=['1/0-ACSR-B-6X1' '1/0-ACSR-B-6X1' '1/0-ACSR-B-6X1' '1/0-ACSR-B-6X1']
New Line.624542476 Phases= 1 Bus1=275418572.3     Bus2=624542474.3     Length=29.70  units=m  Spacing=VERTICAL-1-PH-60-1PH wires=['4-ACSR-B-6X1' '4-ACSR-B-6X1']
New Line.254438376 Phases= 1 Bus1=254438368.2     Bus2=254438378.2     Length=76.20  units=m  Spacing=VERTICAL-1-PH-60-1PH wires=['2-ACSR-B-6X1' '2-ACSR-B-6X1']
New Line.254460286 Phases= 2 Bus1=254460283.2.3   Bus2=254460288.2.3   Length=71.89  units=m  Spacing=8'-ARM-STANDARD-2PH wires=['4-ACSR-B-6X1' '4-ACSR-B-6X1' '4-ACSR-B-6X1']
New Line.262298078 Phases= 1 Bus1=254459964.2     Bus2=262298080.2     Length=1.53   units=m  Spacing=VERTICAL-1-PH-60-1PH wires=['2-ACSR-B-6X1' '2-ACSR-B-6X1']
New Line.254454761 Phases= 3 Bus1=254454753.1.2.3 Bus2=254454763.1.2.3 Length=118.40 units=m  Spacing=8'-ARM-NON-CENTER-POST-3PH wires=['2-ACSR-B-6X1' '2-ACSR-B-6X1' '1/0-ACSR-B-6X1' '2-ACSR-B-6X1']
New Line.254454776 Phases= 1 Bus1=254454773.1     Bus2=254454778.1     Length=250.30 units=m  Spacing=VERTICAL-1-PH-60-1PH wires=['2-ACSR-B-6X1' '2-ACSR-B-6X1']
New Line.263903320 Phases= 1 Bus1=263903317.2     Bus2=254455110.2     Length=166.80 units=m  Spacing=VERTICAL-1-PH-60-1PH wires=['4-ACSR-B-6X1' '4-ACSR-B-6X1']
New Line.254432860 Phases= 1 Bus1=254432857.1     Bus2=254432862.1     Length=81.88  units=m  Spacing=VERTICAL-1-PH-60-1PH wires=['2-ACSR-B-6X1' '2-ACSR-B-6X1']
New Line.254438007 Phases= 1 Bus1=254438004.2     Bus2=254438009.2     Length=58.61  units=m  Spacing=VERTICAL-1-PH-60-1PH wires=['2-ACSR-B-6X1' '2-ACSR-B-6X1']
New Line.617284937 Phases= 1 Bus1=254449306.2     Bus2=617284936.2     Length=143.50 units=m  Spacing=VERTICAL-1-PH-60-1PH wires=['1/0-ACSR-WP-6X1' '1/0-ACSR-WP-6X1']
New Line.254432620 Phases= 3 Bus1=254432617.1.2.3 Bus2=254432622.1.2.3 Length=140.20 units=m  Spacing=8'-ARM-NON-CENTER-POST-3PH wires=['2-CU-B-7' '2-CU-B-7' '2-CU-B-7' '2-CU-B-7']
New Line.254444137 Phases= 3 Bus1=254444134.1.2.3 Bus2=254444139.1.2.3 Length=55.91  units=m  Spacing=8'-ARM-STANDARD-3PH wires=['2-ACSR-B-6X1' '2-ACSR-B-6X1' '2-ACSR-B-6X1' '2-ACSR-B-6X1']
New Line.254460683 Phases= 1 Bus1=254460680.2     Bus2=254460685.2     Length=108.70 units=m  Spacing=VERTICAL-1-PH-60-1PH wires=['4-ACSR-B-6X1' '4-ACSR-B-6X1']
New Line.262292035 Bus1=254438212.1     Bus2=262292037.1     LineCode=1/0-AL-TRXLPELCJ-25KV Phases= 1 Length=1.53   units=m enable=yes
New Line.254449167 Phases= 3 Bus1=254449164.1.2.3 Bus2=254449169.1.2.3 Length=12.05  units=m  Spacing=8'-ARM-NON-CENTER-POST-3PH wires=['336-ACSR-B-18X1' '336-ACSR-B-18X1' '336-ACSR-B-18X1' '1/0-ACSR-B-6X1']
New Line.254449187 Phases= 3 Bus1=254449184.1.2.3 Bus2=254449189.1.2.3 Length=19.65  units=m  Spacing=8'-ARM-NON-CENTER-POST-3PH wires=['336-ACSR-B-18X1' '336-ACSR-B-18X1' '336-ACSR-B-18X1' '1/0-ACSR-B-6X1']
New Line.385539547 Phases= 1 Bus1=254454604.1     Bus2=385539549.1     Length=1.54   units=m  Spacing=VERTICAL-1-PH-60-1PH wires=['2-ACSR-B-6X1' '2-ACSR-B-6X1']
New Line.254432741 Phases= 3 Bus1=254432738.1.2.3 Bus2=254432743.1.2.3 Length=93.64  units=m  Spacing=8'-ARM-NON-CENTER-POST-3PH wires=['1/0-ACSR-B-6X1' '1/0-ACSR-B-6X1' '1/0-ACSR-B-6X1' '2-ACSR-B-6X1']
New Line.254455362 Phases= 3 Bus1=254455359.1.2.3 Bus2=254455364.1.2.3 Length=51.63  units=m  Spacing=8'-ARM-NON-CENTER-POST-3PH wires=['4-ACSR-B-6X1' '4-ACSR-B-6X1' '4-ACSR-B-6X1' '2-ACSR-B-6X1']
New Line.254459870 Phases= 2 Bus1=254454908.2.3   Bus2=254459872.2.3   Length=70.86  units=m  Spacing=8'-ARM-STANDARD-2PH wires=['4-ACSR-B-6X1' '4-ACSR-B-6X1' '4-ACSR-B-6X1']
New Line.254449593 Phases= 1 Bus1=254449590.3     Bus2=254449595.3     Length=68.90  units=m  Spacing=VERTICAL-1-PH-60-1PH wires=['2-ACSR-B-6X1' '2-ACSR-B-6X1']
New Line.254433257 Phases= 3 Bus1=254433254.1.2.3 Bus2=254433259.1.2.3 Length=24.50  units=m  Spacing=8'-ARM-NON-CENTER-POST-3PH wires=['336-ACSR-B-18X1' '336-ACSR-B-18X1' '336-ACSR-B-18X1' '336-ACSR-B-18X1']
New Line.254460516 Phases= 1 Bus1=254460513.2     Bus2=254460518.2     Length=49.46  units=m  Spacing=VERTICAL-1-PH-60-1PH wires=['1/0-ACSR-WP-6X1' '1/0-ACSR-WP-6X1']
New Line.254438257 Phases= 3 Bus1=254438254.1.2.3 Bus2=254438259.1.2.3 Length=90.09  units=m  Spacing=8'-ARM-NON-CENTER-POST-3PH wires=['4-ACSR-B-6X1' '4-ACSR-B-6X1' '4-ACSR-B-6X1' '4-ACSR-B-6X1']
New Line.254461040 Phases= 1 Bus1=254461037.1     Bus2=254461042.1     Length=265.10 units=m  Spacing=VERTICAL-1-PH-60-1PH wires=['2-ACSR-B-6X1' '2-ACSR-B-6X1']
New Line.624566309 Phases= 2 Bus1=624566306.1.2   Bus2=254437283.1.2   Length=14.33  units=m  Spacing=8'-ARM-STANDARD-2PH wires=['2-ACSR-B-6X1' '2-ACSR-B-6X1' '2-ACSR-B-6X1']
New Line.254449192 Phases= 3 Bus1=254449115.1.2.3 Bus2=254449194.1.2.3 Length=57.22  units=m  Spacing=8'-ARM-NON-CENTER-POST-3PH wires=['336-ACSR-B-18X1' '336-ACSR-B-18X1' '336-ACSR-B-18X1' '2-ACSR-B-6X1']
New Line.262292098 Bus1=254438393.1     Bus2=262292100.1     LineCode=1/0-AL-TRXLPELCJ-25KV Phases= 1 Length=1.52   units=m enable=yes
New Line.864708829 Phases= 3 Bus1=864708827.1.2.3 Bus2=384228735.1.2.3 Length=76.81  units=m  Spacing=8'-ARM-NON-CENTER-POST-3PH wires=['1/0-ACSR-B-6X1' '1/0-ACSR-B-6X1' '1/0-ACSR-B-6X1' '1/0-ACSR-B-6X1']
New Line.259415834 Phases= 3 Bus1=254448806.1.2.3 Bus2=254448810.1.2.3 Length=60.75  units=m  Spacing=8'-ARM-NON-CENTER-POST-3PH wires=['336-ACSR-B-18X1' '336-ACSR-B-18X1' '336-ACSR-B-18X1' '1/0-ACSR-B-6X1']
New Line.254437437 Phases= 3 Bus1=254437434.1.2.3 Bus2=254437439.1.2.3 Length=14.91  units=m  Spacing=8'-ARM-NON-CENTER-POST-3PH wires=['1/0-ACSR-B-6X1' '1/0-ACSR-B-6X1' '1/0-ACSR-B-6X1' '2-ACSR-B-6X1']
New Line.254454555 Phases= 3 Bus1=254454542.1.2.3 Bus2=254454557.1.2.3 Length=74.65  units=m  Spacing=8'-ARM-NON-CENTER-POST-3PH wires=['2-ACSR-B-6X1' '2-ACSR-B-6X1' '1/0-ACSR-B-6X1' '2-ACSR-B-6X1']
New Line.262296552 Phases= 1 Bus1=262296549.1     Bus2=254455596.1     Length=74.91  units=m  Spacing=VERTICAL-1-PH-60-1PH wires=['2-ACSR-B-6X1' '2-ACSR-B-6X1']
New Line.262293558 Phases= 3 Bus1=262293555.1.2.3 Bus2=254444599.1.2.3 Length=56.47  units=m  Spacing=8'-ARM-NON-CENTER-POST-3PH wires=['2-ACSR-B-6X1' '2-ACSR-B-6X1' '2-ACSR-B-6X1' '2-ACSR-B-6X1']
New Line.259262960 Phases= 3 Bus1=254432462.1.2.3 Bus2=254444540.1.2.3 Length=106.30 units=m  Spacing=8'-ARM-NON-CENTER-POST-3PH wires=['336-ACSR-B-18X1' '336-ACSR-B-18X1' '336-ACSR-B-18X1' '1/0-ACSR-B-6X1']
New Line.259275413 Phases= 1 Bus1=254460074.3     Bus2=259275415.3     Length=21.17  units=m  Spacing=VERTICAL-1-PH-104-1PH wires=['1/0-ACSR-B-6X1' '1/0-ACSR-B-6X1']
New Line.262292031 Phases= 1 Bus1=262292028.1     Bus2=254438207.1     Length=84.46  units=m  Spacing=VERTICAL-1-PH-60-1PH wires=['1/0-ACSR-B-6X1' '1/0-ACSR-B-6X1']
New Line.262298321 Bus1=254460937.3     Bus2=262298323.3     LineCode=1/0-AL-TRXLPELCJ-25KV Phases= 1 Length=1.52   units=m enable=yes
New Line.254437892 Phases= 3 Bus1=254437889.1.2.3 Bus2=254437894.1.2.3 Length=36.37  units=m  Spacing=8'-ARM-NON-CENTER-POST-3PH wires=['4-ACSR-B-6X1' '4-ACSR-B-6X1' '1/0-ACSR-B-6X1' '2-ACSR-B-6X1']
New Line.254448158 Phases= 3 Bus1=254448155.1.2.3 Bus2=254448160.1.2.3 Length=211.50 units=m  Spacing=8'-ARM-NON-CENTER-POST-3PH wires=['336-ACSR-B-18X1' '336-ACSR-B-18X1' '336-ACSR-B-18X1' '1/0-ACSR-B-6X1']
New Line.260867480 Bus1=260867481.3     Bus2=260867482.3     LineCode=1/0-AL-TRXLPELCJ-25KV Phases= 1 Length=119.40 units=m enable=yes
New Line.254459850 Phases= 1 Bus1=254459842.3     Bus2=254459852.3     Length=81.22  units=m  Spacing=VERTICAL-1-PH-60-1PH wires=['4-ACSR-B-6X1' '4-ACSR-B-6X1']
New Line.624540335 Phases= 3 Bus1=624540322.1.2.3 Bus2=624540333.1.2.3 Length=16.92  units=m  Spacing=8'-ARM-NON-CENTER-POST-3PH wires=['336-AAC-B-19' '336-AAC-B-19' '336-AAC-B-19' '336-AAC-B-19']
New Line.254454901 Phases= 3 Bus1=254454878.1.2.3 Bus2=254454903.1.2.3 Length=95.75  units=m  Spacing=8'-ARM-NON-CENTER-POST-3PH wires=['1/0-ACSR-B-6X1' '1/0-ACSR-B-6X1' '1/0-ACSR-B-6X1' '1/0-ACSR-B-6X1']
New Line.470628482 Phases= 3 Bus1=264400555.1.2.3 Bus2=469331232.1.2.3 Length=13.38  units=m  Spacing=8'-ARM-NON-CENTER-POST-3PH wires=['336-AAC-B-19' '336-AAC-B-19' '336-AAC-B-19' '336-AAC-B-19']
New Line.254438401 Phases= 1 Bus1=254438398.1     Bus2=254438403.1     Length=59.35  units=m  Spacing=VERTICAL-1-PH-60-1PH wires=['2-ACSR-B-6X1' '2-ACSR-B-6X1']
New Line.385539169 Bus1=385539166.2     Bus2=260118271.2     LineCode=1/0-AL-TRXLPELCJ-25KV Phases= 1 Length=91.51  units=m enable=yes
New Line.262298186 Bus1=254460558.1.2.3 Bus2=262298188.1.2.3 LineCode=1/0-AL-HMWPECN-25KV Phases= 3 Length=1.52   units=m enable=yes
New Line.385539698 Phases= 1 Bus1=385539695.2     Bus2=259210706.2     Length=28.85  units=m  Spacing=VERTICAL-1-PH-104-1PH wires=['2-ACSR-B-6X1' '2-ACSR-B-6X1']
New Line.254454781 Phases= 1 Bus1=254454778.1     Bus2=254454783.1     Length=117.00 units=m  Spacing=VERTICAL-1-PH-60-1PH wires=['2-ACSR-B-6X1' '2-ACSR-B-6X1']
New Line.262291891 Bus1=254437812.1     Bus2=262291893.1     LineCode=2-AL-HMWPECN-25KV Phases= 1 Length=1.52   units=m enable=yes
New Line.262294705 Phases= 1 Bus1=254448535.1     Bus2=262294707.1     Length=1.52   units=m  Spacing=VERTICAL-1-PH-60-1PH wires=['2-ACSR-B-6X1' '2-ACSR-B-6X1']
New Line.624563628 Phases= 3 Bus1=254433438.1.2.3 Bus2=624563626.1.2.3 Length=54.90  units=m  Spacing=HORIZ-LINE-POST-3PH wires=['336-ACSR-B-18X1' '336-ACSR-B-18X1' '336-ACSR-B-18X1' '1/0-ACSR-B-6X1']
New Line.262299992 Bus1=262299989.1.2.3 Bus2=260119725.1.2.3 LineCode=1/0-AL-HMWPECN-25KV Phases= 3 Length=164.10 units=m enable=yes
New Line.254459805 Phases= 1 Bus1=254459802.3     Bus2=254459807.3     Length=126.30 units=m  Spacing=VERTICAL-1-PH-60-1PH wires=['2-ACSR-B-6X1' '2-ACSR-B-6X1']
New Line.263708786 Bus1=263708783.1     Bus2=260980705.1     LineCode=1/0-AL-TRXLPELCJ-25KV Phases= 1 Length=166.20 units=m enable=yes
New Line.254455305 Phases= 1 Bus1=254455302.1     Bus2=254455307.1     Length=30.84  units=m  Spacing=VERTICAL-1-PH-60-1PH wires=['2-ACSR-B-6X1' '2-ACSR-B-6X1']
New Line.254438386 Phases= 3 Bus1=254438383.1.2.3 Bus2=254438388.1.2.3 Length=105.30 units=m  Spacing=8'-ARM-NON-CENTER-POST-3PH wires=['1/0-ACSR-B-6X1' '1/0-ACSR-B-6X1' '1/0-ACSR-B-6X1' '1/0-ACSR-B-6X1']
New Line.251375922 Phases= 3 Bus1=254432669.1.2.3 Bus2=251375924.1.2.3 Length=1.53   units=m  Spacing=8'-ARM-NON-CENTER-POST-3PH wires=['336-AAC-B-19' '336-AAC-B-19' '336-AAC-B-19' '1/0-ACSR-B-6X1']
New Line.254444167 Phases= 1 Bus1=254444164.2     Bus2=254444169.2     Length=26.73  units=m  Spacing=VERTICAL-1-PH-60-1PH wires=['2-ACSR-B-6X1' '2-ACSR-B-6X1']
New Line.624565421 Phases= 1 Bus1=624565418.2     Bus2=254443953.2     Length=14.81  units=m  Spacing=VERTICAL-1-PH-60-1PH wires=['2-ACSR-B-6X1' '2-ACSR-B-6X1']
New Line.617718692 Phases= 3 Bus1=264361084.1.2.3 Bus2=617718690.1.2.3 Length=11.05  units=m  Spacing=8'-ARM-NON-CENTER-POST-3PH wires=['336-ACSR-B-18X1' '336-ACSR-B-18X1' '336-ACSR-B-18X1' '1/0-ACSR-B-6X1']
New Line.262296421 Phases= 1 Bus1=254455334.1     Bus2=262296423.1     Length=1.52   units=m  Spacing=VERTICAL-1-PH-60-1PH wires=['4-ACSR-B-6X1' '4-ACSR-B-6X1']
New Line.254454614 Phases= 3 Bus1=254454604.1.2.3 Bus2=254454616.1.2.3 Length=23.45  units=m  Spacing=8'-ARM-NON-CENTER-POST-3PH wires=['2-ACSR-B-6X1' '2-ACSR-B-6X1' '1/0-ACSR-B-6X1' '2-ACSR-B-6X1']
New Line.259425303 Phases= 3 Bus1=259425300.1.2.3 Bus2=259425305.1.2.3 Length=30.42  units=m  Spacing=8'-ARM-STANDARD-3PH wires=['1/0-ACSR-B-6X1' '1/0-ACSR-B-6X1' '1/0-ACSR-B-6X1' '1/0-ACSR-B-6X1']
New Line.254444274 Phases= 1 Bus1=254444271.1     Bus2=254444276.1     Length=28.16  units=m  Spacing=VERTICAL-1-PH-60-1PH wires=['1/0-ACSR-B-6X1' '1/0-ACSR-B-6X1']
New Line.254448879 Phases= 2 Bus1=254448871.1.2   Bus2=254448881.1.2   Length=30.34  units=m  Spacing=8'-ARM-STANDARD-2PH wires=['1/0-ACSR-B-6X1' '1/0-ACSR-B-6X1' '2-ACSR-B-6X1']
New Line.254449321 Phases= 1 Bus1=254449322.2     Bus2=254449328.2     Length=109.60 units=m  Spacing=VERTICAL-1-PH-60-1PH wires=['1/0-ACSR-WP-6X1' '1/0-ACSR-WP-6X1']
New Line.254438426 Phases= 3 Bus1=254438413.1.2.3 Bus2=254438428.1.2.3 Length=110.60 units=m  Spacing=8'-ARM-NON-CENTER-POST-3PH wires=['1/0-ACSR-B-6X1' '1/0-ACSR-B-6X1' '1/0-ACSR-B-6X1' '1/0-ACSR-B-6X1']
New Line.254454736 Phases= 3 Bus1=254454733.1.2.3 Bus2=254454738.1.2.3 Length=94.90  units=m  Spacing=8'-ARM-NON-CENTER-POST-3PH wires=['2-ACSR-B-6X1' '2-ACSR-B-6X1' '1/0-ACSR-B-6X1' '2-ACSR-B-6X1']
New Line.254443311 Phases= 3 Bus1=254443308.1.2.3 Bus2=254443313.1.2.3 Length=67.51  units=m  Spacing=8'-ARM-NON-CENTER-POST-3PH wires=['4-ACSR-B-6X1' '4-ACSR-B-6X1' '4-ACSR-B-6X1' '4-ACSR-B-6X1']
New Line.627400976 Phases= 3 Bus1=627400973.1.2.3 Bus2=482827030.1.2.3 Length=30.33  units=m  Spacing=8'-ARM-NON-CENTER-POST-3PH wires=['1/0-ACSR-B-6X1' '1/0-ACSR-B-6X1' '1/0-ACSR-B-6X1' '2-ACSR-B-6X1']
New Line.259103904 Phases= 3 Bus1=254437471.1.2.3 Bus2=259103906.1.2.3 Length=22.63  units=m  Spacing=8'-ARM-NON-CENTER-POST-3PH wires=['2-ACSR-B-6X1' '2-ACSR-B-6X1' '2-ACSR-B-6X1' '2-ACSR-B-6X1']
New Line.254448804 Phases= 3 Bus1=254448801.1.2.3 Bus2=254448806.1.2.3 Length=81.45  units=m  Spacing=8'-ARM-NON-CENTER-POST-3PH wires=['336-ACSR-B-18X1' '336-ACSR-B-18X1' '336-ACSR-B-18X1' '1/0-ACSR-B-6X1']
New Line.699304543 Phases= 3 Bus1=699304540.1.2.3 Bus2=699304529.1.2.3 Length=30.62  units=m  Spacing=8'-ARM-NON-CENTER-POST-3PH wires=['1/0-ACSR-B-6X1' '1/0-ACSR-B-6X1' '1/0-ACSR-B-6X1' '2-ACSR-B-6X1']
New Line.254460346 Phases= 1 Bus1=254460343.2     Bus2=254460348.2     Length=70.02  units=m  Spacing=VERTICAL-1-PH-60-1PH wires=['2-ACSR-B-6X1' '2-ACSR-B-6X1']
New Line.254448799 Phases= 3 Bus1=254448796.1.2.3 Bus2=254448801.1.2.3 Length=24.22  units=m  Spacing=8'-ARM-NON-CENTER-POST-3PH wires=['336-ACSR-B-18X1' '336-ACSR-B-18X1' '336-ACSR-B-18X1' '1/0-ACSR-B-6X1']
New Line.482826897 Phases= 1 Bus1=482826895.3     Bus2=254443831.3     Length=8.46   units=m  Spacing=VERTICAL-1-PH-60-1PH wires=['2-ACSR-B-6X1' '2-ACSR-B-6X1']
New Line.254459705 Phases= 2 Bus1=254455681.1.3   Bus2=254459707.1.3   Length=64.93  units=m  Spacing=8'-ARM-STANDARD-2PH wires=['4-ACSR-B-6X1' '4-ACSR-B-6X1' '4-ACSR-B-6X1']
New Line.262296507 Bus1=262296504.3     Bus2=260118351.3     LineCode=1/0-AL-HMWPECN-25KV Phases= 1 Length=179.40 units=m enable=yes
New Line.624564854 Phases= 1 Bus1=254443761.3     Bus2=624564852.3     Length=23.01  units=m  Spacing=VERTICAL-1-PH-60-1PH wires=['2-ACSR-B-6X1' '2-ACSR-B-6X1']
New Line.262297961 Phases= 1 Bus1=254455681.1     Bus2=262297963.1     Length=1.53   units=m  Spacing=VERTICAL-1-PH-104-1PH wires=['2-ACSR-B-6X1' '2-ACSR-B-6X1']
New Line.254437415 Phases= 3 Bus1=254437412.1.2.3 Bus2=254437417.1.2.3 Length=36.49  units=m  Spacing=8'-ARM-NON-CENTER-POST-3PH wires=['4-ACSR-B-6X1' '4-ACSR-B-6X1' '4-ACSR-B-6X1' '4-ACSR-B-6X1']
New Line.624587392 Phases= 3 Bus1=254444112.1.2.3 Bus2=624587390.1.2.3 Length=18.34  units=m  Spacing=8'-ARM-NON-CENTER-POST-3PH wires=['1/0-ACSR-B-6X1' '1/0-ACSR-B-6X1' '1/0-ACSR-B-6X1' '1/0-ACSR-B-6X1']
New Line.254444083 Phases= 3 Bus1=254444080.1.2.3 Bus2=254444085.1.2.3 Length=16.45  units=m  Spacing=8'-ARM-NON-CENTER-POST-3PH wires=['1/0-ACSR-B-6X1' '1/0-ACSR-B-6X1' '1/0-ACSR-B-6X1' '1/0-ACSR-B-6X1']
New Line.262296210 Phases= 1 Bus1=262296207.1     Bus2=254454500.1     Length=54.92  units=m  Spacing=VERTICAL-1-PH-60-1PH wires=['2-ACSR-B-6X1' '1/0-ACSR-B-6X1']
New Line.620187170 Bus1=620187167.1.2.3 Bus2=620187150.1.2.3 LineCode=1/0-AL-TRXLPELCJ-25KV Phases= 3 Length=168.00 units=m enable=yes
New Line.467269778 Phases= 3 Bus1=467269775.1.2.3 Bus2=254438488.1.2.3 Length=162.00 units=m  Spacing=8'-ARM-NON-CENTER-POST-3PH wires=['1/0-ACSR-B-6X1' '1/0-ACSR-B-6X1' '1/0-ACSR-B-6X1' '1/0-ACSR-B-6X1']
New Line.254455327 Phases= 3 Bus1=254455324.1.2.3 Bus2=254455329.1.2.3 Length=45.22  units=m  Spacing=8'-ARM-NON-CENTER-POST-3PH wires=['4-ACSR-B-6X1' '4-ACSR-B-6X1' '4-ACSR-B-6X1' '2-ACSR-B-6X1']
New Line.260003419 Phases= 3 Bus1=260003420.1.2.3 Bus2=260003421.1.2.3 Length=19.31  units=m  Spacing=8'-ARM-STANDARD-3PH wires=['2-ACSR-B-6X1' '2-ACSR-B-6X1' '2-ACSR-B-6X1' '2-ACSR-B-6X1']
New Line.624540415 Phases= 3 Bus1=254432445.1.2.3 Bus2=624540413.1.2.3 Length=102.20 units=m  Spacing=8'-ARM-NON-CENTER-POST-3PH wires=['336-AAC-B-19' '336-AAC-B-19' '336-AAC-B-19' '336-AAC-B-19']
New Line.259425298 Phases= 3 Bus1=259425295.1.2.3 Bus2=259425300.1.2.3 Length=91.03  units=m  Spacing=8'-ARM-STANDARD-3PH wires=['1/0-ACSR-B-6X1' '1/0-ACSR-B-6X1' '1/0-ACSR-B-6X1' '1/0-ACSR-B-6X1']
New Line.264425890 Phases= 3 Bus1=264425887.1.2.3 Bus2=254444134.1.2.3 Length=88.11  units=m  Spacing=8'-ARM-STANDARD-3PH wires=['2-ACSR-B-6X1' '2-ACSR-B-6X1' '2-ACSR-B-6X1' '2-ACSR-B-6X1']
New Line.624541969 Phases= 3 Bus1=699304450.1.2.3 Bus2=624541967.1.2.3 Length=55.89  units=m  Spacing=8'-ARM-NON-CENTER-POST-3PH wires=['4-ACSR-B-6X1' '4-ACSR-B-6X1' '4-ACSR-B-6X1' '4-ACSR-B-6X1']
New Line.624541970 Phases= 3 Bus1=624541967.1.2.3 Bus2=254438182.1.2.3 Length=29.76  units=m  Spacing=8'-ARM-NON-CENTER-POST-3PH wires=['4-ACSR-B-6X1' '4-ACSR-B-6X1' '4-ACSR-B-6X1' '4-ACSR-B-6X1']
New Line.254448473 Phases= 3 Bus1=254448470.1.2.3 Bus2=254448475.1.2.3 Length=71.16  units=m  Spacing=8'-ARM-NON-CENTER-POST-3PH wires=['336-ACSR-B-18X1' '336-ACSR-B-18X1' '336-ACSR-B-18X1' '1/0-ACSR-B-6X1']
New Line.254460012 Phases= 1 Bus1=254460009.2     Bus2=254460014.2     Length=138.30 units=m  Spacing=VERTICAL-1-PH-60-1PH wires=['2-ACSR-B-6X1' '2-ACSR-B-6X1']
New Line.254460426 Phases= 2 Bus1=254460423.2.3   Bus2=254460428.2.3   Length=57.49  units=m  Spacing=8'-ARM-STANDARD-2PH wires=['4-ACSR-B-6X1' '4-ACSR-B-6X1' '4-ACSR-B-6X1']
New Line.254460027 Phases= 2 Bus1=254460004.2.3   Bus2=254460029.2.3   Length=34.32  units=m  Spacing=8'-ARM-STANDARD-2PH wires=['4-ACSR-B-6X1' '4-ACSR-B-6X1' '4-ACSR-B-6X1']
New Line.624620949 Phases= 3 Bus1=624620946.1.2.3 Bus2=254444449.1.2.3 Length=32.10  units=m  Spacing=8'-ARM-NON-CENTER-POST-3PH wires=['336-ACSR-B-18X1' '336-ACSR-B-18X1' '336-ACSR-B-18X1' '1/0-ACSR-B-6X1']
New Line.624542208 Phases= 3 Bus1=624542205.1.2.3 Bus2=254438323.1.2.3 Length=19.03  units=m  Spacing=8'-ARM-NON-CENTER-POST-3PH wires=['1/0-ACSR-B-6X1' '1/0-ACSR-B-6X1' '1/0-ACSR-B-6X1' '1/0-ACSR-B-6X1']
New Line.254443632 Phases= 3 Bus1=254443629.1.2.3 Bus2=254443634.1.2.3 Length=38.58  units=m  Spacing=8'-ARM-NON-CENTER-POST-3PH wires=['1/0-ACSR-B-6X1' '1/0-ACSR-B-6X1' '1/0-ACSR-B-6X1' '1/0-ACSR-B-6X1']
New Line.254448729 Phases= 3 Bus1=254448726.1.2.3 Bus2=254448731.1.2.3 Length=127.40 units=m  Spacing=8'-ARM-NON-CENTER-POST-3PH wires=['336-ACSR-B-18X1' '336-ACSR-B-18X1' '336-ACSR-B-18X1' '1/0-ACSR-B-6X1']
New Line.262294836 Phases= 1 Bus1=262294833.1     Bus2=254449068.1     Length=131.50 units=m  Spacing=VERTICAL-1-PH-60-1PH wires=['2-ACSR-B-6X1' '2-ACSR-B-6X1']
New Line.254460356 Phases= 2 Bus1=254460303.2.3   Bus2=254460358.2.3   Length=47.93  units=m  Spacing=8'-ARM-STANDARD-2PH wires=['4-ACSR-B-6X1' '4-ACSR-B-6X1' '4-ACSR-B-6X1']
New Line.254437800 Phases= 3 Bus1=254437797.1.2.3 Bus2=254437802.1.2.3 Length=75.50  units=m  Spacing=8'-ARM-STANDARD-3PH wires=['2-ACSR-B-6X1' '2-ACSR-B-6X1' '2-ACSR-B-6X1' '2-ACSR-B-6X1']
New Line.254460556 Phases= 3 Bus1=254460553.1.2.3 Bus2=254460558.1.2.3 Length=100.60 units=m  Spacing=8'-ARM-NON-CENTER-POST-3PH wires=['1/0-ACSR-B-6X1' '1/0-ACSR-B-6X1' '1/0-ACSR-B-6X1' '1/0-ACSR-B-6X1']
New Line.620618939 Phases= 3 Bus1=254443549.1.2.3 Bus2=620618937.1.2.3 Length=41.70  units=m  Spacing=8'-ARM-NON-CENTER-POST-3PH wires=['1/0-ACSR-B-6X1' '1/0-ACSR-B-6X1' '1/0-ACSR-B-6X1' '1/0-ACSR-B-6X1']
New Line.254455452 Phases= 1 Bus1=254455449.3     Bus2=254455454.3     Length=101.60 units=m  Spacing=VERTICAL-1-PH-60-1PH wires=['1/0-ACSR-B-6X1' '1/0-ACSR-B-6X1']
New Line.254454602 Phases= 3 Bus1=254454603.1.2.3 Bus2=254454604.1.2.3 Length=26.22  units=m  Spacing=8'-ARM-NON-CENTER-POST-3PH wires=['2-ACSR-B-6X1' '2-ACSR-B-6X1' '1/0-ACSR-B-6X1' '2-ACSR-B-6X1']
New Line.254459902 Phases= 2 Bus1=254459899.2.3   Bus2=254459904.2.3   Length=5.63   units=m  Spacing=8'-ARM-STANDARD-2PH wires=['4-ACSR-B-6X1' '4-ACSR-B-6X1' '4-ACSR-B-6X1']
New Line.254454714 Phases= 1 Bus1=254454696.1     Bus2=254454716.1     Length=15.86  units=m  Spacing=VERTICAL-1-PH-60-1PH wires=['1/0-ACSR-B-6X1' '1/0-ACSR-B-6X1']
New Line.254443697 Phases= 3 Bus1=254443430.1.2.3 Bus2=254443699.1.2.3 Length=33.85  units=m  Spacing=8'-ARM-NON-CENTER-POST-3PH wires=['4-ACSR-B-6X1' '4-ACSR-B-6X1' '4-ACSR-B-6X1' '4-ACSR-B-6X1']
New Line.259554297 Phases= 3 Bus1=254448148.1.2.3 Bus2=254448154.1.2.3 Length=424.50 units=m  Spacing=8'-ARM-NON-CENTER-POST-3PH wires=['336-ACSR-B-18X1' '336-ACSR-B-18X1' '336-ACSR-B-18X1' '1/0-ACSR-B-6X1']
New Line.483410574 Phases= 1 Bus1=254438269.2     Bus2=483410576.2     Length=60.67  units=m  Spacing=VERTICAL-1-PH-104-1PH wires=['2-ACSR-B-6X1' '2-ACSR-B-6X1']
New Line.254438511 Phases= 3 Bus1=254438508.1.2.3 Bus2=254438513.1.2.3 Length=65.58  units=m  Spacing=8'-ARM-NON-CENTER-POST-3PH wires=['1/0-ACSR-B-6X1' '1/0-ACSR-B-6X1' '1/0-ACSR-B-6X1' '1/0-ACSR-B-6X1']
New Line.254437388 Phases= 3 Bus1=254437385.1.2.3 Bus2=254437390.1.2.3 Length=46.41  units=m  Spacing=8'-ARM-NON-CENTER-POST-3PH wires=['336-ACSR-B-18X1' '336-ACSR-B-18X1' '336-ACSR-B-18X1' '1/0-ACSR-B-6X1']
New Line.254443854 Phases= 1 Bus1=254443851.3     Bus2=254443856.3     Length=78.12  units=m  Spacing=VERTICAL-1-PH-60-1PH wires=['2-ACSR-B-6X1' '2-ACSR-B-6X1']
New Line.254449264 Phases= 1 Bus1=254449261.1     Bus2=254449266.1     Length=39.52  units=m  Spacing=VERTICAL-1-PH-60-1PH wires=['2-ACSR-B-6X1' '2-ACSR-B-6X1']
New Line.483410006 Phases= 3 Bus1=483409993.1.2.3 Bus2=483410005.1.2.3 Length=8.77   units=m  Spacing=8'-ARM-STANDARD-3PH wires=['1/0-ACSR-B-6X1' '1/0-ACSR-B-6X1' '1/0-ACSR-B-6X1' '1/0-ACSR-B-6X1']
New Line.254460022 Phases= 1 Bus1=254460019.2     Bus2=254460024.2     Length=56.09  units=m  Spacing=VERTICAL-1-PH-60-1PH wires=['2-ACSR-B-6X1' '2-ACSR-B-6X1']
New Line.254433272 Phases= 3 Bus1=254433269.1.2.3 Bus2=254433274.1.2.3 Length=50.73  units=m  Spacing=8'-ARM-NON-CENTER-POST-3PH wires=['336-ACSR-B-18X1' '336-ACSR-B-18X1' '336-ACSR-B-18X1' '336-ACSR-B-18X1']
New Line.385538837 Phases= 3 Bus1=385538834.1.2.3 Bus2=254449236.1.2.3 Length=54.04  units=m  Spacing=8'-ARM-NON-CENTER-POST-3PH wires=['1/0-ACSR-B-6X1' '1/0-ACSR-B-6X1' '1/0-ACSR-B-6X1' '1/0-ACSR-B-6X1']
New Line.262293370 Bus1=254443619.1.2.3 Bus2=262293372.1.2.3 LineCode=1/0-AL-HMWPECN-25KV Phases= 3 Length=1.52   units=m enable=yes
New Line.254466380 Phases= 3 Bus1=254466375.1.2.3 Bus2=254466381.1.2.3 Length=56.64  units=m  Spacing=8'-ARM-NON-CENTER-POST-3PH wires=['1/0-ACSR-B-6X1' '1/0-ACSR-B-6X1' '1/0-ACSR-B-6X1' '1/0-ACSR-B-6X1']
New Line.254449396 Phases= 1 Bus1=254449393.2     Bus2=254449398.2     Length=158.50 units=m  Spacing=VERTICAL-1-PH-60-1PH wires=['2-ACSR-B-6X1' '2-ACSR-B-6X1']
New Line.263996912 Bus1=263996909.1.2.3 Bus2=261281880.1.2.3 LineCode=1/0-AL-TRXLPELCJ-25KV Phases= 3 Length=111.80 units=m enable=yes
New Line.251375988 Phases= 3 Bus1=254432775.1.2.3 Bus2=264425716.1.2.3 Length=1.52   units=m  Spacing=8'-ARM-NON-CENTER-POST-3PH wires=['336-AAC-B-19' '336-AAC-B-19' '336-AAC-B-19' '1/0-ACSR-B-6X1']
New Line.254460174 Phases= 1 Bus1=254460166.3     Bus2=254460176.3     Length=126.20 units=m  Spacing=VERTICAL-1-PH-60-1PH wires=['2-ACSR-B-6X1' '2-ACSR-B-6X1']
New Line.254454639 Phases= 1 Bus1=254454636.1     Bus2=254454641.1     Length=90.07  units=m  Spacing=VERTICAL-1-PH-60-1PH wires=['2-ACSR-B-6X1' '2-ACSR-B-6X1']
New Line.254454709 Phases= 1 Bus1=254454701.1     Bus2=254454711.1     Length=170.10 units=m  Spacing=VERTICAL-1-PH-60-1PH wires=['2-ACSR-B-6X1' '2-ACSR-B-6X1']
New Line.264547956 Phases= 3 Bus1=254432639.1.2.3 Bus2=264547958.1.2.3 Length=1.52   units=m  Spacing=8'-ARM-NON-CENTER-POST-3PH wires=['2-CU-B-7' '2-CU-B-7' '2-CU-B-7' '4-CU-B-7']
New Line.385538068 Phases= 3 Bus1=254448209.1.2.3 Bus2=385538070.1.2.3 Length=1.54   units=m  Spacing=8'-ARM-NON-CENTER-POST-3PH wires=['336-ACSR-B-18X1' '336-ACSR-B-18X1' '336-ACSR-B-18X1' '1/0-ACSR-B-6X1']
New Line.254444051 Phases= 3 Bus1=254444048.1.2.3 Bus2=254444053.1.2.3 Length=13.62  units=m  Spacing=8'-ARM-NON-CENTER-POST-3PH wires=['2-ACSR-B-6X1' '2-ACSR-B-6X1' '2-ACSR-B-6X1' '2-ACSR-B-6X1']
New Line.254448889 Phases= 3 Bus1=254448886.1.2.3 Bus2=254448891.1.2.3 Length=77.19  units=m  Spacing=8'-ARM-NON-CENTER-POST-3PH wires=['336-ACSR-B-18X1' '336-ACSR-B-18X1' '336-ACSR-B-18X1' '1/0-ACSR-B-6X1']
New Line.624622024 Phases= 3 Bus1=624622021.1.2.3 Bus2=254432989.1.2.3 Length=6.00   units=m  Spacing=8'-ARM-NON-CENTER-POST-3PH wires=['336-ACSR-B-18X1' '336-ACSR-B-18X1' '336-ACSR-B-18X1' '1/0-ACSR-B-6X1']
New Line.254433014 Phases= 3 Bus1=254433011.1.2.3 Bus2=254433016.1.2.3 Length=14.28  units=m  Spacing=8'-ARM-NON-CENTER-POST-3PH wires=['336-ACSR-B-18X1' '336-ACSR-B-18X1' '336-ACSR-B-18X1' '1/0-ACSR-B-6X1']
New Line.482826487 Phases= 3 Bus1=254444303.1.2.3 Bus2=482826486.1.2.3 Length=87.15  units=m  Spacing=8'-ARM-STANDARD-3PH wires=['1/0-ACSR-B-6X1' '1/0-ACSR-B-6X1' '1/0-ACSR-B-6X1' '1/0-ACSR-B-6X1']
New Line.254454267 Phases= 3 Bus1=254454264.1.2.3 Bus2=254454269.1.2.3 Length=30.94  units=m  Spacing=8'-ARM-NON-CENTER-POST-3PH wires=['1/0-ACSR-B-6X1' '1/0-ACSR-B-6X1' '2-ACSR-B-6X1' '2-ACSR-B-6X1']
New Line.620369601 Phases= 1 Bus1=620369599.3     Bus2=254449614.3     Length=84.39  units=m  Spacing=VERTICAL-1-PH-60-1PH wires=['2-ACSR-B-6X1' '2-ACSR-B-6X1']
New Line.254454473 Phases= 3 Bus1=254454470.1.2.3 Bus2=254454475.1.2.3 Length=71.90  units=m  Spacing=8'-ARM-NON-CENTER-POST-3PH wires=['2-ACSR-B-6X1' '2-ACSR-B-6X1' '1/0-ACSR-B-6X1' '2-ACSR-B-6X1']
New Line.254444523 Phases= 3 Bus1=254444525.1.2.3 Bus2=254444524.1.2.3 Length=17.01  units=m  Spacing=8'-ARM-NON-CENTER-POST-3PH wires=['336-ACSR-B-18X1' '336-ACSR-B-18X1' '336-ACSR-B-18X1' '1/0-ACSR-B-6X1']
New Line.254449207 Phases= 3 Bus1=254449204.1.2.3 Bus2=254449209.1.2.3 Length=125.20 units=m  Spacing=8'-ARM-NON-CENTER-POST-3PH wires=['1/0-ACSR-B-6X1' '1/0-ACSR-B-6X1' '1/0-ACSR-B-6X1' '1/0-ACSR-B-6X1']