New Line.PDP28__2843462 Bus1=T5120B01_1_reg.1.2.3 Bus2=1823870.1.2.3 Switch=y
