New loadshape.LS_PhaseA npts=1440 sinterval=60 mult=(0.732714 0.731793 0.730215 0.728480 0.726612 0.724641 0.722603 0.720537 0.718484 0.716486 0.714583 0.712810 0.711265 0.709897 0.708717 0.707726 0.706921 0.706289 0.705810 0.705460 0.705207 0.705018 0.704690 0.704368 0.704028 0.703649 0.703207 0.702683 0.702061 0.701326 0.700469 0.699482 0.698165 0.696740 0.695231 0.693666 0.692075 0.690488 0.688937 0.687449 0.686050 0.684763 0.683550 0.682487 0.681585 0.680853 0.680291 0.679895 0.679654 0.679553 0.679570 0.679680 0.679718 0.679804 0.679917 0.680038 0.680143 0.680210 0.680218 0.680145 0.679971 0.679680 0.679100 0.678391 0.677557 0.676606 0.675549 0.674396 0.673159 0.671851 0.670484 0.669070 0.667499 0.665913 0.664331 0.662771 0.661247 0.659769 0.658344 0.656974 0.655658 0.654392 0.653164 0.651970 0.650797 0.649631 0.648461 0.647273 0.646057 0.644806 0.643513 0.642180 0.640483 0.638786 0.637132 0.635562 0.634119 0.632841 0.631763 0.630913 0.630311 0.629968 0.629958 0.630190 0.630637 0.631263 0.632022 0.632860 0.633718 0.634534 0.635242 0.635778 0.635924 0.635794 0.635351 0.634564 0.633412 0.631881 0.629968 0.627680 0.625033 0.622054 0.618545 0.614805 0.610907 0.606928 0.602946 0.599041 0.595286 0.591752 0.588500 0.585582 0.583113 0.581043 0.579381 0.578126 0.577263 0.576767 0.576604 0.576731 0.577099 0.577654 0.578098 0.578638 0.579242 0.579874 0.580502 0.581095 0.581624 0.582063 0.582390 0.582583 0.582586 0.582431 0.582111 0.581625 0.580975 0.580164 0.579200 0.578093 0.576856 0.575503 0.573850 0.572134 0.570391 0.568655 0.566959 0.565330 0.563793 0.562366 0.561059 0.559879 0.558898 0.558027 0.557249 0.556539 0.555871 0.555217 0.554550 0.553845 0.553080 0.552240 0.550959 0.549621 0.548261 0.546918 0.545634 0.544453 0.543416 0.542563 0.541929 0.541543 0.541580 0.541886 0.542454 0.543268 0.544305 0.545536 0.546928 0.548444 0.550045 0.551692 0.552996 0.554302 0.555608 0.556910 0.558205 0.559490 0.560760 0.562005 0.563216 0.564377 0.565625 0.566769 0.567773 0.568598 0.569207 0.569563 0.569634 0.569395 0.568826 0.567918 0.566339 0.564458 0.562321 0.559983 0.557505 0.554951 0.552385 0.549872 0.547473 0.545246 0.543270 0.541554 0.540128 0.539014 0.538220 0.537747 0.537583 0.537707 0.538089 0.538693 0.539406 0.540254 0.541189 0.542164 0.543127 0.544031 0.544827 0.545473 0.545932 0.546172 0.545893 0.545379 0.544644 0.543709 0.542601 0.541348 0.539980 0.538526 0.537016 0.535475 0.534070 0.532662 0.531251 0.529834 0.528404 0.526954 0.525476 0.523960 0.522401 0.520795 0.518819 0.516830 0.514862 0.512956 0.511150 0.509485 0.507997 0.506721 0.505687 0.504918 0.504480 0.504330 0.504467 0.504883 0.505561 0.506479 0.507609 0.508918 0.510370 0.511926 0.513368 0.514849 0.516346 0.517834 0.519292 0.520697 0.522030 0.523273 0.524410 0.525427 0.526288 0.527011 0.527592 0.528032 0.528330 0.528493 0.528527 0.528441 0.528250 0.527966 0.527378 0.526753 0.526129 0.525545 0.525034 0.524625 0.524343 0.524204 0.524216 0.524381 0.524815 0.525366 0.525999 0.526673 0.527343 0.527963 0.528485 0.528864 0.529061 0.529040 0.528439 0.527606 0.526559 0.525327 0.523941 0.522441 0.520864 0.519253 0.517648 0.516086 0.514646 0.513308 0.512092 0.511011 0.510071 0.509272 0.508607 0.508065 0.507626 0.507269 0.506941 0.506645 0.506356 0.506048 0.505696 0.505280 0.504782 0.504190 0.503497 0.502704 0.501488 0.500221 0.498951 0.497729 0.496607 0.495634 0.494856 0.494312 0.494032 0.494038 0.494502 0.495242 0.496230 0.497425 0.498779 0.500235 0.501732 0.503204 0.504587 0.505817 0.506627 0.507192 0.507485 0.507487 0.507189 0.506589 0.505697 0.504531 0.503116 0.501487 0.499484 0.497373 0.495220 0.493097 0.491071 0.489208 0.487565 0.486193 0.485132 0.484412 0.484194 0.484325 0.484784 0.485537 0.486545 0.487757 0.489119 0.490575 0.492066 0.493537 0.494575 0.495528 0.496387 0.497151 0.497823 0.498409 0.498923 0.499376 0.499784 0.500162 0.500666 0.501159 0.501640 0.502111 0.502572 0.503025 0.503470 0.503911 0.504353 0.504803 0.504916 0.505091 0.505371 0.505800 0.506419 0.507263 0.508361 0.509732 0.511387 0.513326 0.515696 0.518302 0.521097 0.524027 0.527031 0.530044 0.532999 0.535831 0.538478 0.540885 0.542763 0.544338 0.545606 0.546572 0.547254 0.547677 0.547878 0.547902 0.547798 0.547624 0.547193 0.546831 0.546619 0.546634 0.546942 0.547603 0.548661 0.550145 0.552066 0.554421 0.557511 0.560943 0.564631 0.568482 0.572392 0.576258 0.579974 0.583444 0.586579 0.589308 0.590919 0.592088 0.592854 0.593272 0.593411 0.593349 0.593168 0.592954 0.592791 0.592755 0.593228 0.593926 0.594865 0.596053 0.597480 0.599130 0.600974 0.602978 0.605099 0.607292 0.609282 0.611272 0.613239 0.615162 0.617021 0.618805 0.620502 0.622109 0.623627 0.625063 0.626135 0.627176 0.628229 0.629341 0.630552 0.631900 0.633416 0.635122 0.637031 0.639142 0.641724 0.644449 0.647259 0.650087 0.652861 0.655507 0.657951 0.660124 0.661963 0.663417 0.663833 0.663851 0.663511 0.662866 0.661972 0.660894 0.659695 0.658439 0.657185 0.655984 0.655314 0.654733 0.654227 0.653772 0.653339 0.652896 0.652413 0.651858 0.651209 0.650448 0.648882 0.647260 0.645654 0.644141 0.642801 0.641710 0.640941 0.640555 0.640603 0.641120 0.642530 0.644392 0.646655 0.649250 0.652100 0.655116 0.658205 0.661271 0.664221 0.666968 0.668865 0.670465 0.671765 0.672771 0.673501 0.673979 0.674235 0.674305 0.674227 0.674039 0.673993 0.673889 0.673741 0.673559 0.673353 0.673130 0.672896 0.672660 0.672431 0.672219 0.671630 0.671125 0.670758 0.670584 0.670654 0.671017 0.671714 0.672781 0.674243 0.676115 0.678471 0.681229 0.684363 0.687841 0.691618 0.695645 0.699863 0.704213 0.708630 0.713052 0.717232 0.721316 0.725268 0.729058 0.732661 0.736061 0.739246 0.742213 0.744965 0.747509 0.749519 0.751385 0.753159 0.754892 0.756634 0.758428 0.760307 0.762297 0.764410 0.766646 0.769358 0.772123 0.774871 0.777527 0.780012 0.782248 0.784161 0.785686 0.786771 0.787380 0.786662 0.785524 0.784058 0.782369 0.780570 0.778778 0.777108 0.775666 0.774550 0.773839 0.774135 0.774888 0.776070 0.777633 0.779515 0.781640 0.783923 0.786276 0.788610 0.790841 0.792311 0.793590 0.794678 0.795586 0.796334 0.796953 0.797480 0.797957 0.798431 0.798950 0.799502 0.800192 0.801062 0.802150 0.803481 0.805074 0.806934 0.809053 0.811414 0.813984 0.816776 0.819680 0.822629 0.825552 0.828376 0.831025 0.833428 0.835517 0.837236 0.838538 0.838949 0.838930 0.838512 0.837744 0.836681 0.835390 0.833942 0.832412 0.830878 0.829412 0.828118 0.827023 0.826184 0.825645 0.825441 0.825594 0.826118 0.827013 0.828269 0.829865 0.831561 0.833549 0.835801 0.838284 0.840956 0.843771 0.846681 0.849630 0.852566 0.855433 0.858113 0.860628 0.862939 0.865010 0.866814 0.868329 0.869544 0.870452 0.871059 0.871378 0.871013 0.870446 0.869746 0.868987 0.868240 0.867571 0.867041 0.866698 0.866580 0.866708 0.867381 0.868275 0.869342 0.870522 0.871748 0.872947 0.874042 0.874960 0.875635 0.876007 0.875355 0.874380 0.873122 0.871632 0.869968 0.868195 0.866378 0.864584 0.862874 0.861303 0.860196 0.859286 0.858575 0.858054 0.857707 0.857510 0.857434 0.857446 0.857514 0.857605 0.857269 0.856941 0.856638 0.856381 0.856195 0.856105 0.856138 0.856320 0.856675 0.857224 0.857823 0.858660 0.859757 0.861128 0.862779 0.864707 0.866897 0.869325 0.871960 0.874758 0.877836 0.880959 0.884051 0.887038 0.889847 0.892411 0.894670 0.896578 0.898101 0.899224 0.899183 0.898826 0.898249 0.897562 0.896877 0.896305 0.895950 0.895906 0.896250 0.897038 0.898814 0.901033 0.903636 0.906542 0.909654 0.912861 0.916043 0.919078 0.921843 0.924224 0.925482 0.926224 0.926435 0.926117 0.925287 0.923975 0.922225 0.920091 0.917636 0.914929 0.911987 0.908940 0.905863 0.902830 0.899905 0.897146 0.894601 0.892307 0.890288 0.888557 0.887213 0.886137 0.885299 0.884661 0.884179 0.883805 0.883492 0.883195 0.882875 0.882498 0.881408 0.880280 0.879167 0.878124 0.877211 0.876487 0.876006 0.875815 0.875952 0.876440 0.877581 0.879052 0.880806 0.882783 0.884913 0.887117 0.889311 0.891408 0.893324 0.894978 0.895876 0.896418 0.896592 0.896396 0.895842 0.894950 0.893751 0.892286 0.890600 0.888748 0.886582 0.884383 0.882231 0.880201 0.878362 0.876779 0.875504 0.874579 0.874031 0.873875 0.874256 0.875005 0.876085 0.877447 0.879035 0.880787 0.882639 0.884528 0.886394 0.888184 0.889172 0.890063 0.890889 0.891690 0.892508 0.893384 0.894358 0.895463 0.896722 0.898149 0.900222 0.902412 0.904656 0.906883 0.909016 0.910979 0.912698 0.914105 0.915146 0.915777 0.915134 0.914121 0.912820 0.911325 0.909736 0.908156 0.906686 0.905420 0.904444 0.903824 0.903953 0.904489 0.905413 0.906686 0.908254 0.910047 0.911983 0.913973 0.915924 0.917743 0.919044 0.920072 0.920783 0.921144 0.921136 0.920754 0.920007 0.918924 0.917543 0.915920 0.913695 0.911412 0.909195 0.907169 0.905459 0.904180 0.903435 0.903312 0.903878 0.905174 0.907467 0.910476 0.914142 0.918384 0.923096 0.928157 0.933430 0.938768 0.944022 0.949040 0.953250 0.956983 0.960154 0.962691 0.964539 0.965658 0.966026 0.965639 0.964509 0.962665 0.959943 0.956627 0.952809 0.948586 0.944064 0.939348 0.934546 0.929761 0.925090 0.920623 0.916517 0.912754 0.909381 0.906431 0.903928 0.901883 0.900295 0.899155 0.898447 0.898149 0.897706 0.897665 0.898039 0.898838 0.900066 0.901718 0.903784 0.906241 0.909059 0.912198 0.915893 0.919775 0.923757 0.927747 0.931652 0.935385 0.938863 0.942016 0.944784 0.947126 0.948282 0.949042 0.949479 0.949675 0.949722 0.949713 0.949737 0.949880 0.950214 0.950797 0.952038 0.953558 0.955328 0.957300 0.959414 0.961594 0.963758 0.965819 0.967688 0.969280 0.970064 0.970468 0.970476 0.970086 0.969306 0.968158 0.966676 0.964902 0.962889 0.960699 0.958078 0.955442 0.952891 0.950521 0.948420 0.946666 0.945322 0.944437 0.944038 0.944133 0.945043 0.946374 0.948048 0.949970 0.952036 0.954138 0.956165 0.958011 0.959581 0.960790 0.960719 0.960250 0.959427 0.958313 0.956980 0.955508 0.953981 0.952483 0.951090 0.949873 0.949390 0.949141 0.949111 0.949277 0.949603 0.950050 0.950571 0.951122 0.951660 0.952146 0.951820 0.951460 0.951120 0.950860 0.950742 0.950828 0.951179 0.951847 0.952875 0.954296 0.956315 0.958731 0.961514 0.964621 0.967996 0.971571 0.975268 0.979003 0.982687 0.986231 0.989228 0.991942 0.994323 0.996328 0.997920 0.999074 0.999770 1.000000 0.999764 0.999072 0.997765 0.996063 0.994017 0.991684 0.989122 0.986394 0.983562 0.980688 0.977829 0.975038 0.972217 0.969567 0.967133 0.964951 0.963049 0.961440 0.960130 0.959110 0.958363 0.957861 0.957429 0.957175 0.957061 0.957044 0.957078 0.957112 0.957098 0.956984 0.956726 0.956279 0.955403 0.954291 0.952937 0.951345 0.949523 0.947487 0.945260 0.942870 0.940348 0.937732 0.934784 0.931844 0.928980 0.926252 0.923719 0.921430 0.919426 0.917737 0.916381 0.915364 0.914788 0.914516 0.914510 0.914719 0.915090 0.915564 0.916079 0.916577 0.917004 0.917311 0.916949 0.916446 0.915831 0.915139 0.914411 0.913693 0.913034 0.912479 0.912073 0.911854 0.911858 0.912103 0.912603 0.913361 0.914369 0.915608 0.917050 0.918654 0.920375 0.922157 0.923820 0.925437 0.926954 0.928321 0.929487 0.930407 0.931044 0.931364 0.931347 0.930982 0.929916 0.928545 0.926924 0.925117 0.923193 0.921227 0.919294 0.917470 0.915827 0.914432 0.913292 0.912514 0.912141 0.912205 0.912726 0.913707 0.915141 0.917004 0.919263 0.921871 0.924619 0.927610 0.930785 0.934080 0.937428 0.940759 0.944005 0.947097 0.949972 0.952572 0.954606 0.956294 0.957625 0.958597 0.959215 0.959493 0.959451 0.959116 0.958519 0.957695 0.956535 0.955239 0.953862 0.952454 0.951064 0.949735 0.948503 0.947398 0.946443 0.945649 0.944866 0.944259 0.943829 0.943569 0.943461 0.943483 0.943602 0.943782 0.943980 0.944152 0.944152 0.944044 0.943794 0.943369 0.942742 0.941892 0.940805 0.939474 0.937901 0.936098 0.933719 0.931190 0.928583 0.925969 0.923423 0.921019 0.918827 0.916909 0.915319 0.914100 0.913361 0.913032 0.913110 0.913575 0.914397 0.915534 0.916933 0.918534 0.920271 0.922075 0.923553 0.924988 0.926343 0.927581 0.928671 0.929585 0.930296 0.930785 0.931036 0.931037 0.930614 0.929945 0.929045 0.927934 0.926630 0.925155 0.923530 0.921775 0.919909 0.917950 0.915922 0.913829 0.911684 0.909497 0.907275 0.905028 0.902763 0.900489 0.898218 0.895961 0.893252 0.890633 0.888162 0.885898 0.883893 0.882190 0.880825 0.879819 0.879181 0.878904 0.879211 0.879799 0.880596 0.881521 0.882484 0.883390 0.884144 0.884656 0.884841 0.884624 0.883471 0.881855 0.879787 0.877295 0.874419 0.871212 0.867735 0.864055 0.860247 0.856383 0.852486 0.848682 0.845041 0.841625 0.838485 0.835662 0.833183 0.831061 0.829296 0.827872 0.826682 0.825774 0.825104 0.824617 0.824251 0.823939 0.823609 0.823188 0.822607 0.821798 0.820561 0.819001 0.817092 0.814817 0.812173 0.809169 0.805827 0.802181 0.798277 0.794172 0.789519 0.784841 0.780251 0.775862 0.771782 0.768108 0.764925 0.762299 0.760277 0.758882 0.758394 0.758483 0.759077 0.760083 0.761390 0.762877 0.764412 0.765862 0.767096 0.767987 0.768055 0.767604 0.766585 0.764970 0.762748 0.759929 0.756543 0.752637 0.748276 0.743540 0.738156 0.732620 0.727071 0.721647 0.716480 0.711692 0.707388 0.703654 0.700553 0.698122 0.696867 0.696232 0.696129 0.696453 0.697078 0.697873 0.698700 0.699423 ) action=normalize

New loadshape.LS_PhaseB npts=1440 sinterval=60 mult=(0.757079 0.755809 0.753409 0.750546 0.747297 0.743753 0.740013 0.736182 0.732365 0.728663 0.725170 0.721969 0.719394 0.717203 0.715405 0.713990 0.712934 0.712194 0.711717 0.711439 0.711288 0.711189 0.710825 0.710386 0.709822 0.709092 0.708160 0.707000 0.705597 0.703946 0.702055 0.699941 0.697264 0.694465 0.691624 0.688824 0.686150 0.683683 0.681497 0.679656 0.678212 0.677201 0.676948 0.677122 0.677681 0.678566 0.679707 0.681024 0.682430 0.683837 0.685156 0.686304 0.686642 0.686717 0.686524 0.686066 0.685355 0.684408 0.683249 0.681903 0.680399 0.678764 0.677280 0.675690 0.673991 0.672179 0.670248 0.668193 0.666009 0.663694 0.661251 0.658685 0.655545 0.652353 0.649170 0.646061 0.643088 0.640308 0.637776 0.635535 0.633618 0.632049 0.631022 0.630330 0.629939 0.629803 0.629867 0.630069 0.630340 0.630610 0.630809 0.630869 0.630405 0.629716 0.628785 0.627603 0.626169 0.624491 0.622582 0.620464 0.618163 0.615710 0.613104 0.610420 0.607700 0.604984 0.602312 0.599722 0.597248 0.594920 0.592762 0.590794 0.588908 0.587246 0.585820 0.584638 0.583697 0.582992 0.582507 0.582223 0.582114 0.582152 0.582250 0.582431 0.582662 0.582911 0.583145 0.583334 0.583449 0.583468 0.583369 0.583140 0.582488 0.581718 0.580856 0.579933 0.578979 0.578026 0.577102 0.576233 0.575439 0.574735 0.574276 0.573902 0.573595 0.573330 0.573078 0.572805 0.572479 0.572067 0.571537 0.570862 0.569673 0.568333 0.566864 0.565291 0.563644 0.561955 0.560256 0.558579 0.556954 0.555407 0.554019 0.552744 0.551586 0.550546 0.549620 0.548798 0.548066 0.547405 0.546795 0.546213 0.545477 0.544738 0.543986 0.543213 0.542414 0.541581 0.540710 0.539797 0.538841 0.537842 0.536649 0.535429 0.534201 0.532982 0.531788 0.530635 0.529535 0.528499 0.527534 0.526643 0.525874 0.525173 0.524528 0.523928 0.523358 0.522802 0.522248 0.521682 0.521093 0.520474 0.519530 0.518580 0.517653 0.516781 0.515995 0.515326 0.514802 0.514446 0.514277 0.514305 0.514603 0.515092 0.515756 0.516570 0.517502 0.518515 0.519569 0.520619 0.521619 0.522524 0.523103 0.523520 0.523754 0.523788 0.523610 0.523213 0.522594 0.521756 0.520704 0.519450 0.517954 0.516296 0.514504 0.512609 0.510645 0.508645 0.506643 0.504675 0.502773 0.500969 0.499133 0.497464 0.496001 0.494775 0.493810 0.493125 0.492728 0.492621 0.492797 0.493238 0.493986 0.494937 0.496049 0.497273 0.498557 0.499849 0.501096 0.502250 0.503266 0.504106 0.504417 0.504526 0.504447 0.504202 0.503814 0.503314 0.502733 0.502102 0.501450 0.500806 0.500319 0.499869 0.499458 0.499083 0.498736 0.498406 0.498077 0.497734 0.497358 0.496933 0.496208 0.495425 0.494595 0.493728 0.492836 0.491935 0.491038 0.490158 0.489310 0.488506 0.487728 0.487018 0.486385 0.485838 0.485383 0.485021 0.484754 0.484581 0.484496 0.484493 0.484460 0.484501 0.484616 0.484803 0.485057 0.485371 0.485740 0.486153 0.486601 0.487073 0.487461 0.487858 0.488259 0.488661 0.489057 0.489441 0.489807 0.490147 0.490452 0.490715 0.490845 0.490922 0.490946 0.490916 0.490831 0.490690 0.490492 0.490236 0.489922 0.489549 0.489017 0.488438 0.487822 0.487180 0.486524 0.485864 0.485210 0.484573 0.483961 0.483384 0.482808 0.482284 0.481822 0.481430 0.481116 0.480886 0.480746 0.480700 0.480753 0.480907 0.480903 0.481026 0.481298 0.481737 0.482357 0.483164 0.484160 0.485336 0.486676 0.488155 0.490020 0.491926 0.493805 0.495584 0.497190 0.498556 0.499623 0.500338 0.500665 0.500579 0.499431 0.497928 0.496151 0.494190 0.492142 0.490104 0.488171 0.486434 0.484967 0.483834 0.483576 0.483679 0.484103 0.484798 0.485696 0.486720 0.487789 0.488819 0.489725 0.490433 0.490352 0.489999 0.489377 0.488504 0.487408 0.486128 0.484709 0.483205 0.481672 0.480169 0.478803 0.477573 0.476528 0.475706 0.475143 0.474863 0.474883 0.475208 0.475837 0.476756 0.477935 0.479354 0.480977 0.482762 0.484664 0.486634 0.488623 0.490584 0.492471 0.494245 0.495638 0.496880 0.497974 0.498931 0.499768 0.500506 0.501172 0.501796 0.502412 0.503051 0.503626 0.504298 0.505105 0.506081 0.507254 0.508643 0.510258 0.512102 0.514168 0.516437 0.519065 0.521823 0.524655 0.527503 0.530307 0.533009 0.535558 0.537909 0.540025 0.541886 0.542882 0.543668 0.544312 0.544890 0.545484 0.546174 0.547039 0.548149 0.549562 0.551326 0.553933 0.556887 0.560142 0.563636 0.567295 0.571036 0.574773 0.578418 0.581884 0.585093 0.587340 0.589260 0.590865 0.592175 0.593223 0.594044 0.594681 0.595176 0.595572 0.595909 0.596565 0.597195 0.597794 0.598350 0.598851 0.599281 0.599626 0.599874 0.600015 0.600048 0.599518 0.598935 0.598357 0.597848 0.597470 0.597287 0.597360 0.597744 0.598486 0.599623 0.601280 0.603364 0.605866 0.608766 0.612032 0.615621 0.619478 0.623540 0.627740 0.632003 0.636099 0.640123 0.644012 0.647711 0.651167 0.654331 0.657165 0.659635 0.661718 0.663401 0.664508 0.665233 0.665605 0.665664 0.665455 0.665029 0.664439 0.663741 0.662992 0.662245 0.661379 0.660626 0.660043 0.659676 0.659562 0.659728 0.660188 0.660943 0.661984 0.663288 0.665059 0.666999 0.669037 0.671101 0.673118 0.675021 0.676748 0.678251 0.679495 0.680460 0.680338 0.680022 0.679613 0.679223 0.678966 0.678956 0.679299 0.680087 0.681395 0.683276 0.686429 0.690121 0.694268 0.698764 0.703482 0.708287 0.713036 0.717584 0.721792 0.725534 0.727985 0.729832 0.731067 0.731705 0.731777 0.731334 0.730439 0.729169 0.727606 0.725841 0.724030 0.722187 0.720391 0.718714 0.717216 0.715951 0.714957 0.714258 0.713867 0.713780 0.713999 0.714476 0.715172 0.716034 0.717006 0.718027 0.719032 0.719960 0.720754 0.721361 0.721303 0.721021 0.720532 0.719860 0.719038 0.718102 0.717095 0.716060 0.715040 0.714075 0.713319 0.712677 0.712168 0.711802 0.711587 0.711523 0.711606 0.711830 0.712185 0.712658 0.712963 0.713386 0.713942 0.714641 0.715495 0.716514 0.717707 0.719079 0.720636 0.722380 0.724205 0.726223 0.728436 0.730847 0.733452 0.736245 0.739218 0.742357 0.745647 0.749070 0.752492 0.756015 0.759625 0.763308 0.767048 0.770828 0.774631 0.778439 0.782235 0.786001 0.789464 0.792888 0.796281 0.799649 0.802998 0.806330 0.809643 0.812932 0.816187 0.819392 0.822599 0.825708 0.828685 0.831496 0.834105 0.836478 0.838584 0.840394 0.841887 0.843049 0.843455 0.843563 0.843420 0.843078 0.842594 0.842023 0.841422 0.840841 0.840328 0.839920 0.839789 0.839801 0.839955 0.840240 0.840636 0.841118 0.841654 0.842208 0.842745 0.843225 0.843237 0.843158 0.842993 0.842748 0.842432 0.842052 0.841619 0.841141 0.840625 0.840077 0.839589 0.839065 0.838495 0.837868 0.837174 0.836400 0.835537 0.834575 0.833510 0.832339 0.830565 0.828735 0.826904 0.825123 0.823442 0.821903 0.820543 0.819387 0.818450 0.817734 0.817646 0.817708 0.817852 0.818000 0.818074 0.817998 0.817699 0.817117 0.816206 0.814935 0.812387 0.809558 0.806555 0.803498 0.800513 0.797728 0.795267 0.793244 0.791756 0.790882 0.791321 0.792401 0.794068 0.796248 0.798847 0.801759 0.804867 0.808051 0.811192 0.814177 0.816037 0.817630 0.818960 0.820042 0.820903 0.821575 0.822098 0.822510 0.822850 0.823153 0.823842 0.824507 0.825125 0.825668 0.826105 0.826402 0.826523 0.826438 0.826120 0.825549 0.824166 0.822568 0.820812 0.818964 0.817092 0.815268 0.813565 0.812050 0.810788 0.809836 0.809287 0.809127 0.809379 0.810052 0.811144 0.812641 0.814518 0.816740 0.819265 0.822043 0.824946 0.827997 0.831143 0.834331 0.837513 0.840641 0.843675 0.846583 0.849339 0.851927 0.853746 0.855442 0.857076 0.858711 0.860408 0.862222 0.864198 0.866370 0.868752 0.871346 0.874685 0.878128 0.881573 0.884905 0.888003 0.890746 0.893016 0.894707 0.895727 0.896008 0.894640 0.892547 0.889811 0.886540 0.882859 0.878904 0.874823 0.870764 0.866874 0.863290 0.860360 0.857948 0.856122 0.854931 0.854399 0.854530 0.855303 0.856679 0.858597 0.860982 0.863686 0.866674 0.869845 0.873092 0.876312 0.879403 0.882274 0.884844 0.887044 0.888827 0.889523 0.889813 0.889759 0.889437 0.888930 0.888330 0.887726 0.887205 0.886845 0.886712 0.887271 0.888104 0.889195 0.890507 0.891994 0.893596 0.895247 0.896876 0.898411 0.899785 0.900411 0.900810 0.900984 0.900947 0.900719 0.900329 0.899812 0.899207 0.898556 0.897902 0.897127 0.896445 0.895909 0.895563 0.895442 0.895573 0.895968 0.896628 0.897540 0.898679 0.900168 0.901781 0.903446 0.905081 0.906605 0.907936 0.908996 0.909715 0.910034 0.909909 0.908635 0.906934 0.904872 0.902524 0.899976 0.897320 0.894647 0.892048 0.889607 0.887399 0.885808 0.884530 0.883568 0.882915 0.882547 0.882434 0.882536 0.882806 0.883197 0.883660 0.883650 0.883673 0.883738 0.883857 0.884050 0.884335 0.884734 0.885270 0.885963 0.886834 0.887862 0.889099 0.890556 0.892241 0.894153 0.896288 0.898634 0.901173 0.903883 0.906737 0.909578 0.912507 0.915497 0.918518 0.921541 0.924532 0.927462 0.930299 0.933013 0.935580 0.937623 0.939506 0.941243 0.942851 0.944344 0.945738 0.947041 0.948262 0.949401 0.950455 0.951531 0.952487 0.953293 0.953918 0.954326 0.954484 0.954361 0.953930 0.953170 0.952070 0.950128 0.947894 0.945430 0.942802 0.940082 0.937343 0.934658 0.932094 0.929715 0.927576 0.925881 0.924490 0.923411 0.922643 0.922174 0.921983 0.922042 0.922319 0.922777 0.923376 0.923565 0.923866 0.924288 0.924840 0.925530 0.926360 0.927330 0.928434 0.929660 0.930987 0.932655 0.934343 0.935993 0.937543 0.938930 0.940098 0.940995 0.941578 0.941816 0.941692 0.940523 0.939061 0.937393 0.935613 0.933822 0.932119 0.930600 0.929354 0.928458 0.927972 0.928219 0.928917 0.930044 0.931559 0.933405 0.935510 0.937789 0.940152 0.942500 0.944737 0.946359 0.947725 0.948791 0.949521 0.949889 0.949881 0.949493 0.948729 0.947606 0.946149 0.944163 0.941939 0.939544 0.937049 0.934527 0.932046 0.929674 0.927468 0.925481 0.923754 0.922410 0.921370 0.920633 0.920190 0.920024 0.920109 0.920413 0.920903 0.921542 0.922295 0.922608 0.923019 0.923547 0.924215 0.925043 0.926050 0.927251 0.928657 0.930272 0.932091 0.934265 0.936596 0.939043 0.941556 0.944083 0.946569 0.948956 0.951193 0.953227 0.955016 0.956102 0.956918 0.957484 0.957826 0.957977 0.957977 0.957863 0.957680 0.957466 0.957260 0.956994 0.956809 0.956736 0.956801 0.957018 0.957393 0.957923 0.958594 0.959383 0.960260 0.961173 0.962094 0.962977 0.963774 0.964437 0.964919 0.965180 0.965184 0.964906 0.964329 0.962924 0.961268 0.959424 0.957462 0.955457 0.953484 0.951617 0.949922 0.948459 0.947277 0.946575 0.946199 0.946140 0.946381 0.946890 0.947625 0.948537 0.949569 0.950663 0.951758 0.952529 0.953217 0.953799 0.954259 0.954589 0.954788 0.954864 0.954833 0.954720 0.954557 0.953974 0.953457 0.953087 0.952943 0.953100 0.953623 0.954565 0.955963 0.957837 0.960189 0.963247 0.966701 0.970471 0.974461 0.978562 0.982657 0.986624 0.990341 0.993691 0.996566 0.998315 0.999464 1.000000 0.999927 0.999263 0.998040 0.996304 0.994111 0.991524 0.988614 0.985476 0.982162 0.978744 0.975295 0.971881 0.968564 0.965401 0.962439 0.959720 0.957275 0.954929 0.952913 0.951251 0.949956 0.949032 0.948474 0.948267 0.948388 0.948806 0.949484 0.950117 0.950943 0.951934 0.953058 0.954279 0.955560 0.956858 0.958130 0.959332 0.960419 0.961338 0.962056 0.962534 0.962737 0.962636 0.962209 0.961439 0.960322 0.958862 0.957071 0.954591 0.951874 0.948996 0.946040 0.943089 0.940227 0.937538 0.935094 0.932965 0.931206 0.929810 0.928863 0.928387 0.928388 0.928854 0.929762 0.931071 0.932729 0.934672 0.936829 0.939027 0.941286 0.943528 0.945678 0.947663 0.949417 0.950883 0.952012 0.952770 0.953135 0.952600 0.951718 0.950553 0.949181 0.947683 0.946144 0.944647 0.943271 0.942088 0.941159 0.940786 0.940729 0.940983 0.941534 0.942354 0.943403 0.944638 0.946006 0.947453 0.948927 0.949898 0.950842 0.951760 0.952659 0.953546 0.954434 0.955334 0.956261 0.957225 0.958236 0.959081 0.959998 0.961004 0.962107 0.963307 0.964592 0.965941 0.967323 0.968696 0.970008 0.971532 0.972843 0.973844 0.974440 0.974545 0.974081 0.972991 0.971235 0.968797 0.965689 0.960947 0.955727 0.950206 0.944577 0.939041 0.933800 0.929046 0.924957 0.921688 0.919364 0.918742 0.919148 0.920537 0.922828 0.925910 0.929643 0.933868 0.938408 0.943080 0.947698 0.951430 0.954819 0.957767 0.960194 0.962036 0.963246 0.963797 0.963679 0.962901 0.961486 0.959380 0.956735 0.953622 0.950119 0.946308 0.942274 0.938101 0.933867 0.929647 0.925504 0.921488 0.917649 0.914020 0.910621 0.907460 0.904531 0.901819 0.899300 0.896940 0.894703 0.892266 0.889890 0.887556 0.885242 0.882928 0.880595 0.878224 0.875800 0.873309 0.870742 0.867982 0.865145 0.862243 0.859288 0.856296 0.853285 0.850274 0.847283 0.844332 0.841442 0.838418 0.835509 0.832748 0.830162 0.827774 0.825598 0.823643 0.821905 0.820374 0.819031 0.817826 0.816746 0.815748 0.814783 0.813799 0.812742 0.811554 0.810181 0.808572 0.806679 0.804230 0.801448 0.798333 0.794890 0.791137 0.787095 0.782795 0.778274 0.773575 0.768744 0.763587 0.758420 0.753317 0.748346 0.743571 0.739048 0.734823 0.730928 0.727386 0.724205 0.721535 0.719188 0.717119 0.715275 0.713594 0.712010 0.710459 0.708875 0.707199 0.705381 0.702895 0.700240 0.697441 0.694532 0.691556 0.688562 0.685602 0.682730 0.679997 0.677452 0.675207 0.673220 0.671511 0.670092 0.668962 0.668113 0.667525 0.667171 0.667013 0.667009 0.667025 0.667106 0.667203 0.667272 0.667265 0.667139 0.666856 0.666383 ) action=normalize
