New loadshape.LS_PhaseA npts=10000 sinterval=60 mult=(0.758206 0.756772 0.755173 0.753622 0.752149 0.750779 0.749535 0.748431 0.747477 0.746675 0.746019 0.745496 0.745112 0.744813 0.744562 0.744320 0.744045 0.743694 0.743222 0.742590 0.741762 0.740705 0.739038 0.737137 0.735026 0.732735 0.730299 0.727758 0.725150 0.722516 0.719895 0.717322 0.714928 0.712631 0.710444 0.708374 0.706424 0.704592 0.702872 0.701258 0.699740 0.698308 0.696631 0.695050 0.693586 0.692257 0.691082 0.690075 0.689247 0.688603 0.688146 0.687870 0.687746 0.687777 0.687941 0.688210 0.688553 0.688933 0.689309 0.689641 0.689884 0.689997 0.689816 0.689438 0.688842 0.688009 0.686926 0.685588 0.683993 0.682148 0.680064 0.677762 0.675042 0.672181 0.669232 0.666253 0.663302 0.660436 0.657710 0.655170 0.652859 0.650811 0.649045 0.647582 0.646431 0.645585 0.645033 0.644750 0.644705 0.644860 0.645171 0.645589 0.645881 0.646194 0.646491 0.646737 0.646898 0.646942 0.646840 0.646568 0.646102 0.645429 0.644409 0.643176 0.641738 0.640111 0.638315 0.636371 0.634304 0.632142 0.629912 0.627644 0.625266 0.622914 0.620624 0.618427 0.616354 0.614429 0.612672 0.611100 0.609721 0.608543 0.607448 0.606559 0.605879 0.605404 0.605125 0.605030 0.605103 0.605324 0.605671 0.606117 0.606508 0.606960 0.607456 0.607983 0.608525 0.609068 0.609597 0.610100 0.610565 0.610980 0.611260 0.611481 0.611645 0.611753 0.611809 0.611818 0.611786 0.611719 0.611623 0.611507 0.611145 0.610797 0.610488 0.610243 0.610081 0.610016 0.610055 0.610200 0.610445 0.610774 0.611308 0.611866 0.612404 0.612874 0.613227 0.613414 0.613390 0.613118 0.612567 0.611714 0.610116 0.608246 0.606156 0.603904 0.601554 0.599174 0.596831 0.594591 0.592514 0.590654 0.589210 0.588044 0.587162 0.586559 0.586221 0.586120 0.586222 0.586484 0.586859 0.587296 0.587531 0.587741 0.587892 0.587954 0.587900 0.587705 0.587350 0.586821 0.586110 0.585213 0.583989 0.582603 0.581081 0.579454 0.577754 0.576015 0.574271 0.572556 0.570900 0.569331 0.567814 0.566432 0.565205 0.564147 0.563265 0.562560 0.562026 0.561651 0.561419 0.561308 0.561221 0.561209 0.561248 0.561316 0.561387 0.561438 0.561449 0.561400 0.561277 0.561071 0.560610 0.560077 0.559493 0.558880 0.558269 0.557688 0.557170 0.556744 0.556441 0.556288 0.556148 0.556214 0.556514 0.557067 0.557885 0.558968 0.560307 0.561881 0.563658 0.565596 0.567769 0.569980 0.572154 0.574209 0.576064 0.577642 0.578869 0.579681 0.580025 0.579861 0.578776 0.577187 0.575136 0.572681 0.569890 0.566843 0.563623 0.560321 0.557025 0.553823 0.550861 0.548145 0.545733 0.543675 0.542009 0.540758 0.539932 0.539529 0.539534 0.539918 0.540558 0.541500 0.542695 0.544088 0.545619 0.547225 0.548842 0.550407 0.551859 0.553143 0.554004 0.554626 0.554995 0.555104 0.554954 0.554555 0.553923 0.553078 0.552046 0.550858 0.549514 0.548083 0.546603 0.545111 0.543644 0.542235 0.540912 0.539704 0.538629 0.537706 0.536842 0.536157 0.535661 0.535359 0.535251 0.535331 0.535589 0.536007 0.536568 0.537249 0.537875 0.538583 0.539357 0.540184 0.541045 0.541925 0.542804 0.543666 0.544492 0.545268 0.545958 0.546569 0.547091 0.547517 0.547841 0.548062 0.548183 0.548208 0.548148 0.548016 0.547567 0.547106 0.546680 0.546333 0.546110 0.546050 0.546188 0.546551 0.547157 0.548016 0.549253 0.550721 0.552392 0.554228 0.556183 0.558209 0.560254 0.562266 0.564193 0.565990 0.567273 0.568380 0.569310 0.570072 0.570679 0.571148 0.571500 0.571756 0.571940 0.572073 0.572226 0.572362 0.572494 0.572630 0.572776 0.572933 0.573103 0.573282 0.573466 0.573651 0.573729 0.573807 0.573888 0.573977 0.574079 0.574200 0.574349 0.574533 0.574762 0.575048 0.575056 0.575174 0.575442 0.575900 0.576577 0.577500 0.578682 0.580128 0.581827 0.583760 0.586251 0.588866 0.591520 0.594124 0.596585 0.598815 0.600730 0.602260 0.603347 0.603952 0.603380 0.602368 0.600993 0.599353 0.597554 0.595711 0.593941 0.592357 0.591069 0.590171 0.590039 0.590414 0.591317 0.592746 0.594682 0.597087 0.599908 0.603079 0.606520 0.610146 0.613727 0.617325 0.620862 0.624265 0.627466 0.630407 0.633039 0.635328 0.637253 0.638807 0.639567 0.640025 0.640253 0.640333 0.640350 0.640391 0.640538 0.640865 0.641437 0.642303 0.643822 0.645652 0.647763 0.650106 0.652617 0.655222 0.657839 0.660378 0.662750 0.664867 0.666229 0.667218 0.667805 0.667974 0.667718 0.667039 0.665950 0.664472 0.662634 0.660474 0.657999 0.655291 0.652404 0.649391 0.646308 0.643209 0.640144 0.637162 0.634305 0.631612 0.629094 0.626801 0.624753 0.622965 0.621446 0.620200 0.619222 0.618507 0.618044 0.617819 0.617482 0.617380 0.617521 0.617912 0.618555 0.619448 0.620581 0.621938 0.623498 0.625231 0.627314 0.629473 0.631643 0.633760 0.635756 0.637571 0.639147 0.640438 0.641406 0.642027 0.641765 0.641197 0.640385 0.639401 0.638325 0.637239 0.636223 0.635355 0.634705 0.634330 0.634483 0.634971 0.635791 0.636927 0.638348 0.640011 0.641862 0.643841 0.645880 0.647909 0.649665 0.651293 0.652749 0.653992 0.654993 0.655728 0.656185 0.656361 0.656265 0.655917 0.655013 0.653954 0.652813 0.651671 0.650606 0.649696 0.649011 0.648612 0.648550 0.648860 0.649724 0.650969 0.652567 0.654475 0.656637 0.658984 0.661441 0.663924 0.666346 0.668624 0.670542 0.672172 0.673459 0.674362 0.674848 0.674903 0.674524 0.673727 0.672542 0.671014 0.668614 0.666051 0.663455 0.660959 0.658689 0.656766 0.655292 0.654351 0.654002 0.654278 0.655920 0.658100 0.660702 0.663588 0.666608 0.669603 0.672415 0.674895 0.676907 0.678337 0.678063 0.677154 0.675673 0.673709 0.671371 0.668784 0.666084 0.663409 0.660896 0.658674 0.657361 0.656504 0.656137 0.656270 0.656899 0.657996 0.659519 0.661409 0.663596 0.666002 0.668167 0.670412 0.672682 0.674922 0.677078 0.679100 0.680942 0.682564 0.683933 0.685021 0.685684 0.686048 0.686121 0.685921 0.685471 0.684799 0.683940 0.682930 0.681812 0.680628 0.679303 0.678007 0.676791 0.675703 0.674786 0.674077 0.673608 0.673404 0.673479 0.673844 0.674480 0.675404 0.676604 0.678063 0.679762 0.681673 0.683771 0.686026 0.688409 0.690893 0.693090 0.695371 0.697747 0.700231 0.702834 0.705564 0.708426 0.711419 0.714538 0.717768 0.721248 0.724775 0.728301 0.731772 0.735131 0.738319 0.741278 0.743952 0.746292 0.748253 0.749396 0.750137 0.750498 0.750505 0.750195 0.749608 0.748786 0.747774 0.746617 0.745356 0.744142 0.742889 0.741619 0.740346 0.739085 0.737842 0.736623 0.735431 0.734267 0.733132 0.731688 0.730307 0.729020 0.727859 0.726853 0.726027 0.725402 0.724994 0.724813 0.724861 0.725158 0.725667 0.726368 0.727236 0.728239 0.729342 0.730509 0.731699 0.732874 0.733996 0.734796 0.735499 0.736099 0.736595 0.736987 0.737284 0.737492 0.737624 0.737693 0.737714 0.737644 0.737567 0.737505 0.737483 0.737521 0.737641 0.737861 0.738196 0.738660 0.739263 0.739706 0.740327 0.741151 0.742200 0.743486 0.745015 0.746782 0.748772 0.750961 0.753314 0.756005 0.758749 0.761473 0.764099 0.766553 0.768763 0.770666 0.772211 0.773358 0.774086 0.773698 0.772957 0.771951 0.770781 0.769554 0.768377 0.767357 0.766592 0.766171 0.766164 0.767080 0.768455 0.770262 0.772455 0.774972 0.777740 0.780673 0.783684 0.786683 0.789582 0.791700 0.793620 0.795335 0.796845 0.798159 0.799294 0.800269 0.801110 0.801843 0.802494 0.803126 0.803718 0.804284 0.804834 0.805372 0.805899 0.806409 0.806890 0.807329 0.807706 0.807977 0.808147 0.808197 0.808110 0.807869 0.807465 0.806889 0.806145 0.805240 0.804192 0.802503 0.800776 0.799095 0.797549 0.796224 0.795201 0.794555 0.794346 0.794620 0.795409 0.797113 0.799301 0.801914 0.804877 0.808107 0.811510 0.814990 0.818450 0.821799 0.824953 0.827115 0.829016 0.830677 0.832126 0.833403 0.834549 0.835610 0.836632 0.837653 0.838708 0.840151 0.841636 0.843140 0.844627 0.846058 0.847385 0.848559 0.849529 0.850249 0.850673 0.850330 0.849669 0.848711 0.847486 0.846030 0.844385 0.842599 0.840722 0.838807 0.836907 0.834927 0.833073 0.831402 0.829966 0.828807 0.827957 0.827441 0.827269 0.827441 0.827947 0.828869 0.830063 0.831480 0.833067 0.834767 0.836523 0.838280 0.839988 0.841607 0.843102 0.843894 0.844582 0.845218 0.845861 0.846574 0.847421 0.848466 0.849766 0.851368 0.853311 0.855777 0.858601 0.861762 0.865224 0.868936 0.872836 0.876850 0.880897 0.884888 0.888734 0.892119 0.895205 0.897930 0.900241 0.902095 0.903457 0.904305 0.904630 0.904437 0.903744 0.902328 0.900512 0.898374 0.896002 0.893490 0.890934 0.888432 0.886078 0.883961 0.882160 0.880555 0.879408 0.878777 0.878701 0.879203 0.880281 0.881917 0.884067 0.886671 0.889648 0.893138 0.896779 0.900431 0.903954 0.907207 0.910057 0.912382 0.914079 0.915066 0.915287 0.913791 0.911581 0.908761 0.905460 0.901819 0.897990 0.894124 0.890368 0.886857 0.883711 0.881818 0.880391 0.879410 0.878832 0.878601 0.878646 0.878886 0.879241 0.879633 0.879988 0.879123 0.878216 0.877333 0.876549 0.875941 0.875588 0.875562 0.875925 0.876726 0.877996 0.880430 0.883269 0.886419 0.889772 0.893206 0.896594 0.899808 0.902723 0.905225 0.907212 0.907712 0.907638 0.907030 0.905949 0.904471 0.902681 0.900675 0.898550 0.896405 0.894332 0.892867 0.891592 0.890530 0.889691 0.889080 0.888689 0.888506 0.888516 0.888700 0.889041 0.888790 0.888732 0.888918 0.889399 0.890222 0.891427 0.893043 0.895087 0.897562 0.900452 0.904080 0.908015 0.912165 0.916424 0.920680 0.924818 0.928720 0.932276 0.935383 0.937951 0.939385 0.940201 0.940409 0.940039 0.939136 0.937760 0.935984 0.933889 0.931562 0.929096 0.926404 0.923765 0.921278 0.919031 0.917098 0.915539 0.914397 0.913693 0.913430 0.913589 0.914412 0.915543 0.916891 0.918351 0.919817 0.921180 0.922339 0.923201 0.923689 0.923746 0.922481 0.920812 0.918824 0.916618 0.914311 0.912027 0.909891 0.908025 0.906542 0.905543 0.905514 0.906073 0.907222 0.908940 0.911188 0.913905 0.917014 0.920427 0.924043 0.927758 0.931078 0.934321 0.937417 0.940305 0.942930 0.945244 0.947212 0.948806 0.950009 0.950817 0.950917 0.950671 0.950133 0.949362 0.948420 0.947371 0.946275 0.945186 0.944155 0.943221 0.942543 0.941999 0.941585 0.941285 0.941079 0.940936 0.940822 0.940700 0.940533 0.940286 0.939549 0.938712 0.937788 0.936800 0.935774 0.934740 0.933733 0.932789 0.931945 0.931240 0.930505 0.929995 0.929757 0.929830 0.930248 0.931030 0.932188 0.933716 0.935601 0.937811 0.940354 0.943124 0.946054 0.949067 0.952081 0.955013 0.957779 0.960297 0.962492 0.964298 0.965307 0.965863 0.965968 0.965638 0.964900 0.963795 0.962370 0.960681 0.958790 0.956764 0.954453 0.952160 0.949968 0.947955 0.946188 0.944725 0.943608 0.942864 0.942506 0.942527 0.942941 0.943670 0.944660 0.945840 0.947134 0.948456 0.949718 0.950833 0.951715 0.952289 0.952253 0.951810 0.950941 0.949644 0.947933 0.945835 0.943396 0.940675 0.937744 0.934687 0.931037 0.927500 0.924221 0.921345 0.919003 0.917310 0.916357 0.916209 0.916901 0.918436 0.921463 0.925178 0.929425 0.934028 0.938796 0.943529 0.948029 0.952105 0.955585 0.958322 0.959029 0.958894 0.957971 0.956342 0.954112 0.951407 0.948364 0.945126 0.941834 0.938623 0.936183 0.933995 0.932095 0.930497 0.929196 0.928172 0.927385 0.926789 0.926322 0.925922 0.925078 0.924209 0.923293 0.922308 0.921240 0.920077 0.918816 0.917457 0.916010 0.914487 0.912531 0.910577 0.908686 0.906920 0.905338 0.903992 0.902926 0.902175 0.901760 0.901689 0.902284 0.903168 0.904278 0.905544 0.906890 0.908237 0.909510 0.910639 0.911564 0.912239 0.911913 0.911358 0.910639 0.909837 0.909041 0.908343 0.907840 0.907624 0.907779 0.908379 0.909665 0.911481 0.913837 0.916723 0.920110 0.923952 0.928186 0.932736 0.937512 0.942417 0.947120 0.951762 0.956254 0.960510 0.964449 0.967993 0.971076 0.973641 0.975643 0.977051 0.977547 0.977458 0.976821 0.975688 0.974120 0.972187 0.969964 0.967528 0.964958 0.962330 0.959648 0.957052 0.954605 0.952362 0.950364 0.948642 0.947214 0.946084 0.945244 0.944675 0.944286 0.944103 0.944084 0.944180 0.944339 0.944505 0.944625 0.944645 0.944517 0.944200 0.943242 0.942071 0.940709 0.939180 0.937516 0.935751 0.933917 0.932047 0.930171 0.928313 0.926534 0.924797 0.923101 0.921438 0.919791 0.918139 0.916454 0.914702 0.912850 0.910862 0.908626 0.906197 0.903553 0.900680 0.897569 0.894221 0.890646 0.886865 0.882907 0.878815 0.874055 0.869321 0.864729 0.860397 0.856435 0.852945 0.850015 0.847716 0.846094 0.845173 0.845367 0.846192 0.847558 0.849352 0.851444 0.853692 0.855945 0.858054 0.859871 0.861262 0.861544 0.861228 0.860280 0.858690 0.856468 0.853642 0.850260 0.846386 0.842095 0.837476 0.832515 0.827429 0.822331 0.817330 0.812527 0.808015 0.803875 0.800170 0.796949 0.794241 0.792114 0.790496 0.789353 0.788635 0.788277 0.788203 0.788326 0.788554 0.788794 0.788954 0.788641 0.788111 0.787321 0.786241 0.784852 0.783144 0.781123 0.778803 0.776212 0.773386 0.770090 0.766681 0.763239 0.759846 0.756583 0.753524 0.750735 0.748271 0.746172 0.744464 0.743429 0.742768 0.742434 0.742372 0.742513 0.742786 0.743114 0.743422 0.743640 0.743706 0.742938 0.741983 0.740869 0.739635 0.738326 0.736993 0.735689 0.734465 0.733370 0.732445 0.731904 0.731573 0.731447 0.731513 0.731745 0.732110 0.732564 0.733061 0.733545 0.733963 0.734161 0.734196 0.734027 0.733620 0.732949 0.731994 0.730747 0.729211 0.727399 0.725336 0.722488 0.719520 0.716534 0.713634 0.710921 0.708488 0.706415 0.704768 0.703590 0.702905 0.703309 0.704126 0.705257 0.706584 0.707979 0.709308 0.710437 0.711236 0.711591 0.711403 0.709724 0.707452 0.704637 0.701348 0.697675 0.693720 0.689592 0.685406 0.681276 0.677307 0.673954 0.670910 0.668210 0.665874 0.663905 0.662291 0.661006 0.660009 0.659251 0.658674 0.658011 0.657419 0.656848 0.656248 0.655575 0.654787 0.653849 0.652733 0.651422 0.649906 0.647811 0.645556 0.643195 0.640786 0.638389 0.636066 0.633875 0.631868 0.630090 0.628573 0.627656 0.627004 0.626588 0.626367 0.626292 0.626307 0.626357 0.626383 0.626331 0.626152 0.625165 0.624034 0.622791 0.621474 0.620124 0.618782 0.617488 0.616278 0.615179 0.614210 0.613896 0.613675 0.613490 0.613281 0.612983 0.612531 0.611868 0.610944 0.609719 0.608169 0.605386 0.602358 0.599187 0.595984 0.592863 0.589938 0.587313 0.585081 0.583318 0.582077 0.582168 0.582745 0.583721 0.584986 0.586419 0.587891 0.589268 0.590424 0.591240 0.591616 0.590514 0.588919 0.586880 0.584469 0.581770 0.578881 0.575908 0.572956 0.570128 0.567521 0.565766 0.564333 0.563225 0.562431 0.561928 0.561679 0.561640 0.561758 0.561979 0.562247 0.561987 0.561721 0.561449 0.561178 0.560915 0.560672 0.560460 0.560289 0.560167 0.560102 0.560221 0.560386 0.560582 0.560788 0.560982 0.561138 0.561231 0.561235 0.561123 0.560872 0.560241 0.559453 0.558516 0.557437 0.556228 0.554905 0.553483 0.551978 0.550407 0.548788 0.547124 0.545444 0.543766 0.542102 0.540466 0.538868 0.537316 0.535819 0.534381 0.533006 0.531468 0.530019 0.528677 0.527460 0.526380 0.525447 0.524663 0.524024 0.523522 0.523141 0.522998 0.522919 0.522862 0.522783 0.522641 0.522392 0.521999 0.521430 0.520661 0.519677 0.518030 0.516205 0.514255 0.512238 0.510215 0.508251 0.506406 0.504736 0.503289 0.502104 0.501493 0.501163 0.501092 0.501248 0.501590 0.502069 0.502635 0.503233 0.503809 0.504314 0.504292 0.504153 0.503903 0.503554 0.503125 0.502636 0.502112 0.501580 0.501065 0.500592 0.500288 0.500057 0.499902 0.499826 0.499824 0.499890 0.500014 0.500182 0.500380 0.500592 0.500599 0.500605 0.500609 0.500615 0.500620 0.500626 0.500630 0.500628 0.500618 0.500592 0.500523 0.500426 0.500293 0.500114 0.499883 0.499588 0.499223 0.498778 0.498248 0.497626 0.496766 0.495823 0.494811 0.493746 0.492642 0.491517 0.490385 0.489262 0.488162 0.487096 0.485987 0.484938 0.483962 0.483069 0.482265 0.481551 0.480927 0.480387 0.479920 0.479514 0.479150 0.478815 0.478492 0.478160 0.477802 0.477400 0.476940 0.476409 0.475799 0.475107 0.474049 0.472941 0.471820 0.470723 0.469690 0.468759 0.467963 0.467333 0.466896 0.466667 0.466846 0.467230 0.467798 0.468523 0.469372 0.470310 0.471301 0.472308 0.473299 0.474245 0.474714 0.475134 0.475529 0.475929 0.476365 0.476869 0.477471 0.478197 0.479071 0.480106 0.481510 0.483066 0.484748 0.486522 0.488351 0.490193 0.492002 0.493735 0.495347 0.496799 0.497776 0.498556 0.499141 0.499541 0.499770 0.499847 0.499796 0.499642 0.499411 0.499132 0.498773 0.498423 0.498110 0.497858 0.497686 0.497609 0.497635 0.497767 0.497999 0.498321 0.498756 0.499241 0.499746 0.500239 0.500689 0.501061 0.501325 0.501454 0.501424 0.501219 0.500485 0.499593 0.498579 0.497483 0.496347 0.495216 0.494132 0.493137 0.492266 0.491550 0.491244 0.491110 0.491136 0.491302 0.491584 0.491957 0.492390 0.492856 0.493329 0.493786 0.493764 0.493737 0.493737 0.493799 0.493962 0.494259 0.494724 0.495384 0.496258 0.497359 0.498957 0.500752 0.502705 0.504769 0.506891 0.509013 0.511079 0.513033 0.514822 0.516400 0.517276 0.517915 0.518335 0.518564 0.518634 0.518581 0.518441 0.518251 0.518047 0.517858 0.517923 0.518028 0.518166 0.518327 0.518494 0.518648 0.518769 0.518837 0.518832 0.518739 0.518203 0.517593 0.516939 0.516273 0.515632 0.515053 0.514575 0.514233 0.514062 0.514089 0.514433 0.515013 0.515832 0.516892 0.518185 0.519701 0.521426 0.523341 0.525425 0.527656 0.529732 0.531932 0.534256 0.536702 0.539266 0.541943 0.544721 0.547586 0.550521 0.553500 0.556623 0.559721 0.562748 0.565657 0.568400 0.570931 0.573208 0.575194 0.576857 0.578176 0.578735 0.578966 0.578906 0.578602 0.578102 0.577456 0.576715 0.575925 0.575130 0.574363 0.573895 0.573483 0.573117 0.572779 0.572448 0.572098 0.571703 0.571235 0.570670 0.569990 0.568800 0.567511 0.566155 0.564775 0.563415 0.562122 0.560944 0.559929 0.559119 0.558555 0.558226 0.558204 0.558510 0.559154 0.560136 0.561447 0.563063 0.564952 0.567071 0.569369 0.571953 0.574578 0.577163 0.579625 0.581887 0.583878 0.585535 0.586810 0.587672 0.588103 0.587413 0.586375 0.585085 0.583649 0.582179 0.580787 0.579582 0.578659 0.578103 0.577978 0.578995 0.580448 0.582274 0.584397 0.586722 0.589150 0.591572 0.593885 0.595989 0.597798 0.598319 0.598499 0.598379 0.598017 0.597479 0.596838 0.596170 0.595546 0.595033 0.594688 0.595123 0.595745 0.596518 0.597393 0.598311 0.599208 0.600018 0.600672 0.601110 0.601276 0.600606 0.599641 0.598411 0.596959 0.595339 0.593613 0.591850 0.590123 0.588505 0.587072 0.585839 0.584925 0.584390 0.584282 0.584636 0.585474 0.586802 0.588609 0.590867 0.593536 0.596707 0.600149 0.603767 0.607460 0.611125 0.614656 0.617955 0.620930 0.623500 0.625601 0.626680 0.627256 0.627361 0.627044 0.626368 0.625406 0.624237 0.622947 0.621619 0.620336 0.619339 0.618515 0.617906 0.617545 0.617451 0.617632 0.618086 0.618797 0.619742 0.620888 0.621996 0.623239 0.624585 0.625999 0.627443 0.628880 0.630271 0.631582 0.632779 0.633832 0.634622 0.635234 0.635664 0.635915 0.635995 0.635918 0.635704 0.635376 0.634965 0.634501 0.633747 0.633033 0.632419 0.631960 0.631705 0.631696 0.631962 0.632524 0.633386 0.634540 0.636151 0.637980 0.639966 0.642036 0.644112 0.646113 0.647959 0.649572 0.650885 0.651837 0.652089 0.651933 0.651382 0.650463 0.649219 0.647706 0.645993 0.644157 0.642284 0.640465 0.638416 0.636636 0.635242 0.634341 0.634027 0.634371 0.635421 0.637200 0.639699 0.642883 0.647292 0.652174 0.657358 0.662659 0.667880 0.672826 0.677307 0.681148 0.684199 0.686333 0.686466 0.685630 0.683898 0.681373 0.678186 0.674491 0.670455 0.666253 0.662062 0.658051 0.654854 0.652091 0.649839 0.648153 0.647065 0.646585 0.646700 0.647375 0.648560 0.650186 0.651864 0.653846 0.656064 0.658446 0.660918 0.663405 0.665835 0.668141 0.670263 0.672148 0.673652 0.674857 0.675756 0.676352 0.676661 0.676710 0.676539 0.676194 0.675731 0.675212 0.674357 0.673610 0.673065 0.672814 0.672939 0.673509 0.674574 0.676168 0.678303 0.680968 0.684534 0.688509 0.692785 0.697240 0.701742 0.706155 0.710346 0.714189 0.717569 0.720389 0.721813 0.722619 0.722848 0.722561 0.721837 0.720766 0.719451 0.717998 0.716513 0.715098 0.714136 0.713393 0.712912 0.712722 0.712837 0.713256 0.713964 0.714935 0.716131 0.717503 0.718841 0.720261 0.721718 0.723166 0.724560 0.725859 0.727027 0.728034 0.728860 0.729491 0.729481 0.729320 0.729062 0.728765 0.728492 0.728303 0.728251 0.728386 0.728746 0.729357 0.730605 0.732084 0.733748 0.735538 0.737391 0.739237 0.741005 0.742626 0.744038 0.745186 0.745375 0.745285 0.744957 0.744441 0.743792 0.743072 0.742343 0.741665 0.741093 0.740674 0.740729 0.740975 0.741401 0.741987 0.742701 0.743507 0.744358 0.745208 0.746008 0.746711 0.746825 0.746798 0.746637 0.746351 0.745956 0.745468 0.744907 0.744292 0.743645 0.742984 0.742486 0.741994 0.741508 0.741028 0.740553 0.740084 0.739622 0.739172 0.738742 0.738345 0.737420 0.736615 0.736002 0.735652 0.735631 0.735994 0.736786 0.738036 0.739758 0.741944 0.745075 0.748559 0.752291 0.756155 0.760030 0.763790 0.767317 0.770499 0.773239 0.775459 0.776170 0.776355 0.776085 0.775451 0.774554 0.773508 0.772424 0.771413 0.770578 0.770009 0.770410 0.771146 0.772194 0.773517 0.775061 0.776762 0.778547 0.780344 0.782077 0.783680 0.784282 0.784717 0.785021 0.785235 0.785408 0.785593 0.785841 0.786202 0.786719 0.787429 0.788784 0.790334 0.792047 0.793880 0.795787 0.797717 0.799617 0.801438 0.803135 0.804669 0.805308 0.805800 0.806199 0.806562 0.806952 0.807429 0.808050 0.808864 0.809910 0.811214 0.813275 0.815561 0.818012 0.820557 0.823120 0.825618 0.827973 0.830106 0.831950 0.833447 0.833631 0.833481 0.833064 0.832460 0.831752 0.831022 0.830351 0.829809 0.829455 0.829331 0.830220 0.831301 0.832497 0.833717 0.834862 0.835834 0.836536 0.836883 0.836803 0.836246 0.834154 0.831647 0.828836 0.825852 0.822835 0.819938 0.817309 0.815094 0.813423 0.812412 0.812542 0.813451 0.815140 0.817585 0.820731 0.824503 0.828797 0.833496 0.838463 0.843554 0.848504 0.853290 0.857777 0.861836 0.865353 0.868232 0.870396 0.871793 0.872396 0.872208 0.870464 0.868080 0.865204 0.861999 0.858638 0.855293 0.852134 0.849314 0.846969 0.845210 0.844964 0.845362 0.846350 0.847848 0.849755 0.851955 0.854325 0.856740 0.859079 0.861234 0.861856 0.862240 0.862443 0.862537 0.862605 0.862732 0.863005 0.863503 0.864295 0.865433 0.867739 0.870365 0.873232 0.876245 0.879299 0.882279 0.885071 0.887562 0.889651 0.891249 0.891451 0.891122 0.890312 0.889087 0.887532 0.885745 0.883832 0.881902 0.880069 0.878439 0.877278 0.876494 0.876151 0.876296 0.876962 0.878162 0.879896 0.882145 0.884877 0.888044 0.891423 0.895125 0.899089 0.903245 0.907520 0.911839 0.916125 0.920305 0.924310 0.928078 0.931157 0.933933 0.936405 0.938578 0.940466 0.942086 0.943459 0.944607 0.945551 0.946313 0.947116 0.947753 0.948218 0.948506 0.948608 0.948518 0.948231 0.947748 0.947072 0.946212 0.944550 0.942802 0.941052 0.939387 0.937888 0.936631 0.935684 0.935100 0.934917 0.935156 0.936147 0.937516 0.939199 0.941119 0.943185 0.945301 0.947366 0.949280 0.950948 0.952284 0.952686 0.952675 0.952255 0.951449 0.950291 0.948830 0.947125 0.945244 0.943259 0.941248 0.939099 0.937090 0.935308 0.933830 0.932723 0.932039 0.931815 0.932068 0.932799 0.933988 0.935950 0.938253 0.940800 0.943487 0.946206 0.948850 0.951318 0.953524 0.955395 0.956880 0.956812 0.956423 0.955825 0.955147 0.954523 0.954087 0.953967 0.954273 0.955098 0.956506 0.959564 0.963152 0.967153 0.971425 0.975809 0.980139 0.984244 0.987961 0.991139 0.993650 0.993994 0.993622 0.992616 0.991078 0.989132 0.986910 0.984550 0.982185 0.979940 0.977922 0.977103 0.976582 0.976319 0.976253 0.976306 0.976388 0.976402 0.976247 0.975829 0.975062 0.972926 0.970401 0.967532 0.964383 0.961028 0.957549 0.954035 0.950575 0.947258 0.944164 0.941656 0.939478 0.937653 0.936191 0.935090 0.934336 0.933904 0.933761 0.933866 0.934175 0.934266 0.934498 0.934855 0.935320 0.935876 0.936508 0.937197 0.937927 0.938681 0.939444 0.940057 0.940660 0.941250 0.941825 0.942382 0.942916 0.943424 0.943898 0.944331 0.944714 0.944957 0.945139 0.945255 0.945301 0.945275 0.945171 0.944987 0.944721 0.944372 0.943943 0.943005 0.942032 0.941068 0.940155 0.939330 0.938625 0.938064 0.937660 0.937417 0.937328 0.937699 0.938150 0.938616 0.939027 0.939312 0.939401 0.939233 0.938755 0.937926 0.936722 0.934272 0.931529 0.928594 0.925582 0.922611 0.919798 0.917257 0.915086 0.913371 0.912176 0.912066 0.912484 0.913370 0.914648 0.916219 0.917971 0.919782 0.921527 0.923078 0.924318 0.924483 0.924194 0.923431 0.922192 0.920489 0.918349 0.915814 0.912934 0.909773 0.906398 0.902949 0.899432 0.895917 0.892476 0.889178 0.886087 0.883264 0.880760 0.878623 0.876890 0.875222 0.874041 0.873387 0.873291 0.873768 0.874818 0.876426 0.878561 0.881175 0.884207 0.887820 0.891671 0.895648 0.899632 0.903507 0.907162 0.910497 0.913423 0.915871 0.917790 0.918304 0.918332 0.917965 0.917309 0.916479 0.915596 0.914777 0.914131 0.913757 0.913733 0.914683 0.916025 0.917718 0.919704 0.921903 0.924225 0.926569 0.928828 0.930899 0.932682 0.933471 0.933868 0.933868 0.933481 0.932734 0.931664 0.930322 0.928769 0.927072 0.925305 0.923313 0.921419 0.919713 0.918279 0.917190 0.916504 0.916262 0.916486 0.917178 0.918318 0.920281 0.922558 0.925037 0.927595 0.930103 0.932433 0.934462 0.936079 0.937188 0.937716 0.936578 0.934878 0.932709 0.930182 0.927420 0.924556 0.921721 0.919039 0.916625 0.914573 0.913666 0.913181 0.913080 0.913305 0.913776 0.914402 0.915081 0.915706 0.916173 0.916382 0.915467 0.914205 0.912605 0.910692 0.908503 0.906085 0.903494 0.900791 0.898040 0.895304 0.892815 0.890445 0.888229 0.886196 0.884368 0.882758 0.881373 0.880210 0.879261 0.878511 0.877598 0.876867 0.876320 0.875948 0.875740 0.875676 0.875731 0.875872 0.876063 0.876260 0.876462 0.876571 0.876530 0.876284 0.875782 0.874976 0.873824 0.872293 0.870361 0.868015 0.864882 0.861384 0.857580 0.853536 0.849327 0.845032 0.840731 0.836502 0.832420 0.828555 0.824893 0.821562 0.818608 0.816062 0.813938 0.812238 0.810947 0.810035 0.809458 0.809160 0.809111 0.809199 0.809340 0.809450 0.809443 0.809238 0.808763 0.807954 0.806763 0.805155 0.802587 0.799634 0.796358 0.792837 0.789159 0.785416 0.781705 0.778120 0.774749 0.771674 0.769230 0.767182 0.765544 0.764319 0.763492 0.763038 0.762919 0.763087 0.763488 0.764061 0.764190 0.764415 0.764719 0.765084 0.765491 0.765915 0.766329 0.766701 0.766994 0.767166 0.767566 0.767720 0.767547 0.766968 0.765913 0.764323 0.762152 0.759375 0.755985 0.751998 0.746592 0.740766 0.734675 0.728488 0.722379 0.716521 0.711079 0.706203 0.702022 0.698640 0.696767 0.695749 0.695538 0.696056 0.697201 0.698848 0.700858 0.703082 0.705368 0.707568 0.708829 0.709801 0.710432 0.710689 0.710551 0.710014 0.709086 0.707788 0.706148 0.704204 0.702163 0.699893 0.697430 0.694810 0.692071 0.689250 0.686382 0.683503 0.680644 0.677835 0.674893 0.672071 0.669410 0.666941 0.664694 0.662687 0.660935 0.659443 0.658209 0.657224 0.656302 0.655604 0.655113 0.654808 0.654659 0.654633 0.654690 0.654787 0.654876 0.654910 0.654947 0.654823 0.654484 0.653881 0.652973 0.651728 0.650126 0.648160 0.645836 0.643175 0.639585 0.635798 0.631929 0.628096 0.624419 0.621012 0.617979 0.615407 0.613366 0.611901 0.611644 0.611930 0.612675 0.613781 0.615131 0.616600 0.618058 0.619379 0.620443 0.621144 0.620574 0.619558 0.618123 0.616313 0.614189 0.611824 0.609298 0.606699 0.604113 0.601622 0.599604 0.597795 0.596223 0.594903 0.593838 0.593018 0.592424 0.592024 0.591779 0.591646 0.591492 0.591359 0.591203 0.590982 0.590659 0.590203 0.589588 0.588802 0.587838 0.586703 0.584830 0.582880 0.580939 0.579097 0.577440 0.576049 0.574995 0.574334 0.574106 0.574328 0.575671 0.577378 0.579343 0.581448 0.583565 0.585562 0.587311 0.588692 0.589599 0.589947 0.588700 0.586883 0.584572 0.581860 0.578860 0.575692 0.572484 0.569360 0.566438 0.563825 0.562241 0.561069 0.560300 0.559910 0.559856 0.560081 0.560518 0.561091 0.561721 0.562332 0.562254 0.562070 0.561770 0.561355 0.560831 0.560209 0.559503 0.558731 0.557911 0.557062 0.556357 0.555638 0.554904 0.554150 0.553368 0.552552 0.551690 0.550772 0.549788 0.548731 0.547374 0.545950 0.544478 0.542976 0.541462 0.539956 0.538477 0.537043 0.535670 0.534373 0.533105 0.531940 0.530888 0.529957 0.529153 0.528476 0.527923 0.527489 0.527165 0.526939 0.526693 0.526527 0.526431 0.526399 0.526419 0.526483 0.526577 0.526692 0.526816 0.526939 0.526942 0.526935 0.526922 0.526905 0.526888 0.526875 0.526871 0.526877 0.526899 0.526939 0.526880 0.526852 0.526866 0.526929 0.527049 0.527227 0.527463 0.527754 0.528093 0.528470 0.528820 0.529184 0.529549 0.529898 0.530217 0.530487 0.530692 0.530815 0.530842 0.530760 0.530451 0.530026 0.529493 0.528861 0.528143 0.527356 0.526518 0.525650 0.524773 0.523912 0.522918 0.522002 0.521202 0.520553 0.520084 0.519821 0.519780 0.519970 0.520391 0.521036 0.521914 0.522968 0.524162 0.525451 0.526784 0.528110 0.529370 0.530510 0.531473 0.532208 0.532541 0.532573 0.532284 0.531661 0.530703 0.529415 0.527814 0.525924 0.523779 0.521420 0.518628 0.515746 0.512852 0.510026 0.507346 0.504882 0.502696 0.500842 0.499358 0.498271 0.497858 0.497824 0.498125 0.498709 0.499512 0.500466 0.501499 0.502539 0.503520 0.504381 0.504563 0.504580 0.504446 0.504188 0.503836 0.503429 0.503007 0.502612 0.502284 0.502058 0.502153 0.502385 0.502750 0.503240 0.503835 0.504513 0.505243 0.505991 0.506719 0.507390 0.507808 0.508109 0.508275 0.508290 0.508143 0.507827 0.507341 0.506689 0.505882 0.504935 0.503608 0.502211 0.500798 0.499423 0.498138 0.496994 0.496034 0.495298 0.494814 0.494600 0.494916 0.495489 0.496285 0.497265 0.498382 0.499587 0.500828 0.502060 0.503237 0.504323 0.504719 0.505025 0.505281 0.505531 0.505822 0.506202 0.506714 0.507396 0.508279 0.509383 0.511190 0.513179 0.515291 0.517462 0.519620 0.521691 0.523605 0.525294 0.526703 0.527785 0.527772 0.527449 0.526877 0.526127 0.525279 0.524413 0.523608 0.522937 0.522466 0.522245 0.522882 0.523775 0.524880 0.526137 0.527480 0.528835 0.530127 0.531283 0.532237 0.532930 0.532623 0.532046 0.531243 0.530273 0.529202 0.528100 0.527042 0.526098 0.525335 0.524811 0.524873 0.525227 0.525864 0.526767 0.527903 0.529230 0.530697 0.532246 0.533815 0.535341 0.536508 0.537534 0.538386 0.539038 0.539469 0.539668 0.539629 0.539354 0.538854 0.538149 0.537157 0.536027 0.534809 0.533555 0.532321 0.531165 0.530143 0.529310 0.528715 0.528406 0.528313 0.528586 0.529256 0.530347 0.531869 0.533823 0.536197 0.538965 0.542093 0.545534 0.549245 0.553149 0.557177 0.561252 0.565298 0.569238 0.572998 0.576511 0.579714 0.582555 0.584696 0.586432 0.587770 0.588730 0.589341 0.589642 0.589674 0.589487 0.589130 0.588656 0.588183 0.587685 0.587200 0.586764 0.586405 0.5