New Load.258904308_2 Phases= 1 Bus1=258904308.2 kV=7.1996 XFKVA=50.000000 PF= 0.98 status=variable Vminpu=0.7 yearly=LS_PhaseB daily=LS_PhaseB duty=LS_PhaseB
New Load.260761328_1 Phases= 1 Bus1=260761328.1 kV=7.1996 XFKVA=167.000000 PF= 0.98 status=variable Vminpu=0.7 yearly=LS_PhaseA daily=LS_PhaseA duty=LS_PhaseA
New Load.258904396_1 Phases= 1 Bus1=258904396.1 kV=7.1996 XFKVA=50.000000 PF= 0.98 status=variable Vminpu=0.7 yearly=LS_PhaseA daily=LS_PhaseA duty=LS_PhaseA
New Load.258904125_3 Phases= 1 Bus1=258904125.3 kV=7.1996 XFKVA=100.000000 PF= 0.98 status=variable Vminpu=0.7 yearly=LS_PhaseC daily=LS_PhaseC duty=LS_PhaseC
New Load.258904132_2 Phases= 1 Bus1=258904132.2 kV=7.1996 XFKVA=100.000000 PF= 0.98 status=variable Vminpu=0.7 yearly=LS_PhaseB daily=LS_PhaseB duty=LS_PhaseB
New Load.258908430_3 Phases= 1 Bus1=258908430.3 kV=7.1996 XFKVA=25.000000 PF= 0.98 status=variable Vminpu=0.7 yearly=LS_PhaseC daily=LS_PhaseC duty=LS_PhaseC
New Load.260761148_3 Phases= 1 Bus1=260761148.3 kV=7.1996 XFKVA=100.000000 PF= 0.98 status=variable Vminpu=0.7 yearly=LS_PhaseC daily=LS_PhaseC duty=LS_PhaseC
New Load.260761153_3 Phases= 1 Bus1=260761153.3 kV=7.1996 XFKVA=100.000000 PF= 0.98 status=variable Vminpu=0.7 yearly=LS_PhaseC daily=LS_PhaseC duty=LS_PhaseC
New Load.258904090_2 Phases= 1 Bus1=258904090.2 kV=7.1996 XFKVA=25.000000 PF= 0.98 status=variable Vminpu=0.7 yearly=LS_PhaseB daily=LS_PhaseB duty=LS_PhaseB
New Load.260761293_3 Phases= 1 Bus1=260761293.3 kV=7.1996 XFKVA=100.000000 PF= 0.98 status=variable Vminpu=0.7 yearly=LS_PhaseC daily=LS_PhaseC duty=LS_PhaseC
New Load.258904010_2 Phases= 1 Bus1=258904010.2 kV=7.1996 XFKVA=25.000000 PF= 0.98 status=variable Vminpu=0.7 yearly=LS_PhaseB daily=LS_PhaseB duty=LS_PhaseB
New Load.699645825_3 Phases= 1 Bus1=699645825.3 kV=7.1996 XFKVA=25.000000 PF= 0.98 status=variable Vminpu=0.7 yearly=LS_PhaseC daily=LS_PhaseC duty=LS_PhaseC
New Load.263530738_3 Phases= 1 Bus1=263530738.3 kV=7.1996 XFKVA=25.000000 PF= 0.98 status=variable Vminpu=0.7 yearly=LS_PhaseC daily=LS_PhaseC duty=LS_PhaseC
New Load.258908375_1 Phases= 1 Bus1=258908375.1 kV=7.1996 XFKVA=50.000000 PF= 0.98 status=variable Vminpu=0.7 yearly=LS_PhaseA daily=LS_PhaseA duty=LS_PhaseA
New Load.258904020_2 Phases= 1 Bus1=258904020.2 kV=7.1996 XFKVA=50.000000 PF= 0.98 status=variable Vminpu=0.7 yearly=LS_PhaseB daily=LS_PhaseB duty=LS_PhaseB
New Load.258904095_2 Phases= 1 Bus1=258904095.2 kV=7.1996 XFKVA=25.000000 PF= 0.98 status=variable Vminpu=0.7 yearly=LS_PhaseB daily=LS_PhaseB duty=LS_PhaseB
New Load.699645905_1 Phases= 1 Bus1=699645905.1 kV=7.1996 XFKVA=50.000000 PF= 0.98 status=variable Vminpu=0.7 yearly=LS_PhaseA daily=LS_PhaseA duty=LS_PhaseA
New Load.260761308_2 Phases= 1 Bus1=260761308.2 kV=7.1996 XFKVA=167.000000 PF= 0.98 status=variable Vminpu=0.7 yearly=LS_PhaseB daily=LS_PhaseB duty=LS_PhaseB
New Load.258908071_1 Phases= 1 Bus1=258908071.1 kV=7.1996 XFKVA=50.000000 PF= 0.98 status=variable Vminpu=0.7 yearly=LS_PhaseA daily=LS_PhaseA duty=LS_PhaseA
New Load.258908076_1 Phases= 1 Bus1=258908076.1 kV=7.1996 XFKVA=50.000000 PF= 0.98 status=variable Vminpu=0.7 yearly=LS_PhaseA daily=LS_PhaseA duty=LS_PhaseA
New Load.260760188_1 Phases= 1 Bus1=260760188.1 kV=7.1996 XFKVA=250.000000 PF= 0.98 status=variable Vminpu=0.7 yearly=LS_PhaseA daily=LS_PhaseA duty=LS_PhaseA
New Load.260760188_2 Phases= 1 Bus1=260760188.2 kV=7.1996 XFKVA=250.000000 PF= 0.98 status=variable Vminpu=0.7 yearly=LS_PhaseB daily=LS_PhaseB duty=LS_PhaseB
New Load.260760188_3 Phases= 1 Bus1=260760188.3 kV=7.1996 XFKVA=250.000000 PF= 0.98 status=variable Vminpu=0.7 yearly=LS_PhaseC daily=LS_PhaseC duty=LS_PhaseC
New Load.261302041_2 Phases= 1 Bus1=261302041.2 kV=7.1996 XFKVA=75.000000 PF= 0.98 status=variable Vminpu=0.7 yearly=LS_PhaseB daily=LS_PhaseB duty=LS_PhaseB
New Load.263991393_3 Phases= 1 Bus1=263991393.3 kV=7.1996 XFKVA=25.000000 PF= 0.98 status=variable Vminpu=0.7 yearly=LS_PhaseC daily=LS_PhaseC duty=LS_PhaseC
New Load.263530720_1 Phases= 1 Bus1=263530720.1 kV=7.1996 XFKVA=166.700000 PF= 0.98 status=variable Vminpu=0.7 yearly=LS_PhaseA daily=LS_PhaseA duty=LS_PhaseA
New Load.263530720_2 Phases= 1 Bus1=263530720.2 kV=7.1996 XFKVA=166.700000 PF= 0.98 status=variable Vminpu=0.7 yearly=LS_PhaseB daily=LS_PhaseB duty=LS_PhaseB
New Load.263530720_3 Phases= 1 Bus1=263530720.3 kV=7.1996 XFKVA=166.700000 PF= 0.98 status=variable Vminpu=0.7 yearly=LS_PhaseC daily=LS_PhaseC duty=LS_PhaseC
New Load.258908355_1 Phases= 1 Bus1=258908355.1 kV=7.1996 XFKVA=25.000000 PF= 0.98 status=variable Vminpu=0.7 yearly=LS_PhaseA daily=LS_PhaseA duty=LS_PhaseA
New Load.258908415_3 Phases= 1 Bus1=258908415.3 kV=7.1996 XFKVA=25.000000 PF= 0.98 status=variable Vminpu=0.7 yearly=LS_PhaseC daily=LS_PhaseC duty=LS_PhaseC
New Load.258903814_1 Phases= 1 Bus1=258903814.1 kV=7.1996 XFKVA=10.000000 PF= 0.98 status=variable Vminpu=0.7 yearly=LS_PhaseA daily=LS_PhaseA duty=LS_PhaseA
New Load.260761091_1 Phases= 1 Bus1=260761091.1 kV=7.1996 XFKVA=167.000000 PF= 0.98 status=variable Vminpu=0.7 yearly=LS_PhaseA daily=LS_PhaseA duty=LS_PhaseA
New Load.258908250_1 Phases= 1 Bus1=258908250.1 kV=7.1996 XFKVA=50.000000 PF= 0.98 status=variable Vminpu=0.7 yearly=LS_PhaseA daily=LS_PhaseA duty=LS_PhaseA
New Load.263533241_2 Phases= 1 Bus1=263533241.2 kV=7.1996 XFKVA=50.000000 PF= 0.98 status=variable Vminpu=0.7 yearly=LS_PhaseB daily=LS_PhaseB duty=LS_PhaseB
New Load.258908235_3 Phases= 1 Bus1=258908235.3 kV=7.1996 XFKVA=50.000000 PF= 0.98 status=variable Vminpu=0.7 yearly=LS_PhaseC daily=LS_PhaseC duty=LS_PhaseC
New Load.263530684_1 Phases= 1 Bus1=263530684.1 kV=7.1996 XFKVA=25.000000 PF= 0.98 status=variable Vminpu=0.7 yearly=LS_PhaseA daily=LS_PhaseA duty=LS_PhaseA
New Load.260761116_3 Phases= 1 Bus1=260761116.3 kV=7.1996 XFKVA=100.000000 PF= 0.98 status=variable Vminpu=0.7 yearly=LS_PhaseC daily=LS_PhaseC duty=LS_PhaseC
New Load.263533061_2 Phases= 1 Bus1=263533061.2 kV=7.1996 XFKVA=25.000000 PF= 0.98 status=variable Vminpu=0.7 yearly=LS_PhaseB daily=LS_PhaseB duty=LS_PhaseB
New Load.258908056_1 Phases= 1 Bus1=258908056.1 kV=7.1996 XFKVA=50.000000 PF= 0.98 status=variable Vminpu=0.7 yearly=LS_PhaseA daily=LS_PhaseA duty=LS_PhaseA
New Load.258908056_2 Phases= 1 Bus1=258908056.2 kV=7.1996 XFKVA=50.000000 PF= 0.98 status=variable Vminpu=0.7 yearly=LS_PhaseB daily=LS_PhaseB duty=LS_PhaseB
New Load.258908056_3 Phases= 1 Bus1=258908056.3 kV=7.1996 XFKVA=50.000000 PF= 0.98 status=variable Vminpu=0.7 yearly=LS_PhaseC daily=LS_PhaseC duty=LS_PhaseC
New Load.617632353_2 Phases= 1 Bus1=617632353.2 kV=7.1996 XFKVA=50.000000 PF= 0.98 status=variable Vminpu=0.7 yearly=LS_PhaseB daily=LS_PhaseB duty=LS_PhaseB
New Load.258908290_2 Phases= 1 Bus1=258908290.2 kV=7.1996 XFKVA=50.000000 PF= 0.98 status=variable Vminpu=0.7 yearly=LS_PhaseB daily=LS_PhaseB duty=LS_PhaseB
New Load.263533160_3 Phases= 1 Bus1=263533160.3 kV=7.1996 XFKVA=25.000000 PF= 0.98 status=variable Vminpu=0.7 yearly=LS_PhaseC daily=LS_PhaseC duty=LS_PhaseC
New Load.263530702_1 Phases= 1 Bus1=263530702.1 kV=7.1996 XFKVA=50.000000 PF= 0.98 status=variable Vminpu=0.7 yearly=LS_PhaseA daily=LS_PhaseA duty=LS_PhaseA
New Load.263533223_1 Phases= 1 Bus1=263533223.1 kV=7.1996 XFKVA=50.000000 PF= 0.98 status=variable Vminpu=0.7 yearly=LS_PhaseA daily=LS_PhaseA duty=LS_PhaseA
New Load.263997296_3 Phases= 1 Bus1=263997296.3 kV=7.1996 XFKVA=100.000000 PF= 0.98 status=variable Vminpu=0.7 yearly=LS_PhaseC daily=LS_PhaseC duty=LS_PhaseC
New Load.258907849_1 Phases= 1 Bus1=258907849.1 kV=7.1996 XFKVA=15.000000 PF= 0.98 status=variable Vminpu=0.7 yearly=LS_PhaseA daily=LS_PhaseA duty=LS_PhaseA
New Load.258908155_2 Phases= 1 Bus1=258908155.2 kV=7.1996 XFKVA=25.000000 PF= 0.98 status=variable Vminpu=0.7 yearly=LS_PhaseB daily=LS_PhaseB duty=LS_PhaseB
New Load.258908295_2 Phases= 1 Bus1=258908295.2 kV=7.1996 XFKVA=50.000000 PF= 0.98 status=variable Vminpu=0.7 yearly=LS_PhaseB daily=LS_PhaseB duty=LS_PhaseB
New Load.263533043_1 Phases= 1 Bus1=263533043.1 kV=7.1996 XFKVA=100.000000 PF= 0.98 status=variable Vminpu=0.7 yearly=LS_PhaseA daily=LS_PhaseA duty=LS_PhaseA
New Load.258908034_2 Phases= 1 Bus1=258908034.2 kV=7.1996 XFKVA=25.000000 PF= 0.98 status=variable Vminpu=0.7 yearly=LS_PhaseB daily=LS_PhaseB duty=LS_PhaseB
New Load.258907950_2 Phases= 1 Bus1=258907950.2 kV=7.1996 XFKVA=50.000000 PF= 0.98 status=variable Vminpu=0.7 yearly=LS_PhaseB daily=LS_PhaseB duty=LS_PhaseB
New Load.258908315_2 Phases= 1 Bus1=258908315.2 kV=7.1996 XFKVA=25.000000 PF= 0.98 status=variable Vminpu=0.7 yearly=LS_PhaseB daily=LS_PhaseB duty=LS_PhaseB
New Load.258908395_1 Phases= 1 Bus1=258908395.1 kV=7.1996 XFKVA=25.000000 PF= 0.98 status=variable Vminpu=0.7 yearly=LS_PhaseA daily=LS_PhaseA duty=LS_PhaseA
New Load.258908126_2 Phases= 1 Bus1=258908126.2 kV=7.1996 XFKVA=50.000000 PF= 0.98 status=variable Vminpu=0.7 yearly=LS_PhaseB daily=LS_PhaseB duty=LS_PhaseB
New Load.258907824_2 Phases= 1 Bus1=258907824.2 kV=7.1996 XFKVA=50.000000 PF= 0.98 status=variable Vminpu=0.7 yearly=LS_PhaseB daily=LS_PhaseB duty=LS_PhaseB
New Load.258908133_2 Phases= 1 Bus1=258908133.2 kV=7.1996 XFKVA=25.000000 PF= 0.98 status=variable Vminpu=0.7 yearly=LS_PhaseB daily=LS_PhaseB duty=LS_PhaseB
New Load.263533205_2 Phases= 1 Bus1=263533205.2 kV=7.1996 XFKVA=167.000000 PF= 0.98 status=variable Vminpu=0.7 yearly=LS_PhaseB daily=LS_PhaseB duty=LS_PhaseB
New Load.258896573_1 Phases= 1 Bus1=258896573.1 kV=7.1996 XFKVA=10.000000 PF= 0.98 status=variable Vminpu=0.7 yearly=LS_PhaseA daily=LS_PhaseA duty=LS_PhaseA
New Load.258896573_2 Phases= 1 Bus1=258896573.2 kV=7.1996 XFKVA=10.000000 PF= 0.98 status=variable Vminpu=0.7 yearly=LS_PhaseB daily=LS_PhaseB duty=LS_PhaseB
New Load.258896573_3 Phases= 1 Bus1=258896573.3 kV=7.1996 XFKVA=10.000000 PF= 0.98 status=variable Vminpu=0.7 yearly=LS_PhaseC daily=LS_PhaseC duty=LS_PhaseC
New Load.258908096_1 Phases= 1 Bus1=258908096.1 kV=7.1996 XFKVA=50.000000 PF= 0.98 status=variable Vminpu=0.7 yearly=LS_PhaseA daily=LS_PhaseA duty=LS_PhaseA
New Load.258907928_2 Phases= 1 Bus1=258907928.2 kV=7.1996 XFKVA=50.000000 PF= 0.98 status=variable Vminpu=0.7 yearly=LS_PhaseB daily=LS_PhaseB duty=LS_PhaseB
New Load.258908188_1 Phases= 1 Bus1=258908188.1 kV=7.1996 XFKVA=25.000000 PF= 0.98 status=variable Vminpu=0.7 yearly=LS_PhaseA daily=LS_PhaseA duty=LS_PhaseA
New Load.263533124_3 Phases= 1 Bus1=263533124.3 kV=7.1996 XFKVA=50.000000 PF= 0.98 status=variable Vminpu=0.7 yearly=LS_PhaseC daily=LS_PhaseC duty=LS_PhaseC
New Load.258907804_1 Phases= 1 Bus1=258907804.1 kV=7.1996 XFKVA=50.000000 PF= 0.98 status=variable Vminpu=0.7 yearly=LS_PhaseA daily=LS_PhaseA duty=LS_PhaseA
New Load.263532998_2 Phases= 1 Bus1=263532998.2 kV=7.1996 XFKVA=167.000000 PF= 0.98 status=variable Vminpu=0.7 yearly=LS_PhaseB daily=LS_PhaseB duty=LS_PhaseB
New Load.258907891_3 Phases= 1 Bus1=258907891.3 kV=7.1996 XFKVA=50.000000 PF= 0.98 status=variable Vminpu=0.7 yearly=LS_PhaseC daily=LS_PhaseC duty=LS_PhaseC
New Load.258907896_3 Phases= 1 Bus1=258907896.3 kV=7.1996 XFKVA=50.000000 PF= 0.98 status=variable Vminpu=0.7 yearly=LS_PhaseC daily=LS_PhaseC duty=LS_PhaseC
New Load.258907987_2 Phases= 1 Bus1=258907987.2 kV=7.1996 XFKVA=25.000000 PF= 0.98 status=variable Vminpu=0.7 yearly=LS_PhaseB daily=LS_PhaseB duty=LS_PhaseB
New Load.258907911_1 Phases= 1 Bus1=258907911.1 kV=7.1996 XFKVA=25.000000 PF= 0.98 status=variable Vminpu=0.7 yearly=LS_PhaseA daily=LS_PhaseA duty=LS_PhaseA
New Load.263533097_1 Phases= 1 Bus1=263533097.1 kV=7.1996 XFKVA=166.700000 PF= 0.98 status=variable Vminpu=0.7 yearly=LS_PhaseA daily=LS_PhaseA duty=LS_PhaseA
New Load.263533097_2 Phases= 1 Bus1=263533097.2 kV=7.1996 XFKVA=166.700000 PF= 0.98 status=variable Vminpu=0.7 yearly=LS_PhaseB daily=LS_PhaseB duty=LS_PhaseB
New Load.263533097_3 Phases= 1 Bus1=263533097.3 kV=7.1996 XFKVA=166.700000 PF= 0.98 status=variable Vminpu=0.7 yearly=LS_PhaseC daily=LS_PhaseC duty=LS_PhaseC
New Load.258896432_3 Phases= 1 Bus1=258896432.3 kV=7.1996 XFKVA=50.000000 PF= 0.98 status=variable Vminpu=0.7 yearly=LS_PhaseC daily=LS_PhaseC duty=LS_PhaseC
New Load.258907992_2 Phases= 1 Bus1=258907992.2 kV=7.1996 XFKVA=25.000000 PF= 0.98 status=variable Vminpu=0.7 yearly=LS_PhaseB daily=LS_PhaseB duty=LS_PhaseB
New Load.263533106_1 Phases= 1 Bus1=263533106.1 kV=7.1996 XFKVA=100.000000 PF= 0.98 status=variable Vminpu=0.7 yearly=LS_PhaseA daily=LS_PhaseA duty=LS_PhaseA
New Load.263533106_2 Phases= 1 Bus1=263533106.2 kV=7.1996 XFKVA=100.000000 PF= 0.98 status=variable Vminpu=0.7 yearly=LS_PhaseB daily=LS_PhaseB duty=LS_PhaseB
New Load.263533106_3 Phases= 1 Bus1=263533106.3 kV=7.1996 XFKVA=100.000000 PF= 0.98 status=variable Vminpu=0.7 yearly=LS_PhaseC daily=LS_PhaseC duty=LS_PhaseC
New Load.258896598_2 Phases= 1 Bus1=258896598.2 kV=7.1996 XFKVA=25.000000 PF= 0.98 status=variable Vminpu=0.7 yearly=LS_PhaseB daily=LS_PhaseB duty=LS_PhaseB
New Load.258896538_1 Phases= 1 Bus1=258896538.1 kV=7.1996 XFKVA=75.000000 PF= 0.98 status=variable Vminpu=0.7 yearly=LS_PhaseA daily=LS_PhaseA duty=LS_PhaseA
New Load.258896538_2 Phases= 1 Bus1=258896538.2 kV=7.1996 XFKVA=75.000000 PF= 0.98 status=variable Vminpu=0.7 yearly=LS_PhaseB daily=LS_PhaseB duty=LS_PhaseB
New Load.258896538_3 Phases= 1 Bus1=258896538.3 kV=7.1996 XFKVA=75.000000 PF= 0.98 status=variable Vminpu=0.7 yearly=LS_PhaseC daily=LS_PhaseC duty=LS_PhaseC
New Load.258896529_1 Phases= 1 Bus1=258896529.1 kV=7.1996 XFKVA=50.000000 PF= 0.98 status=variable Vminpu=0.7 yearly=LS_PhaseA daily=LS_PhaseA duty=LS_PhaseA
New Load.258896529_2 Phases= 1 Bus1=258896529.2 kV=7.1996 XFKVA=50.000000 PF= 0.98 status=variable Vminpu=0.7 yearly=LS_PhaseB daily=LS_PhaseB duty=LS_PhaseB
New Load.258896529_3 Phases= 1 Bus1=258896529.3 kV=7.1996 XFKVA=50.000000 PF= 0.98 status=variable Vminpu=0.7 yearly=LS_PhaseC daily=LS_PhaseC duty=LS_PhaseC
New Load.263534340_1 Phases= 1 Bus1=263534340.1 kV=7.1996 XFKVA=250.000000 PF= 0.98 status=variable Vminpu=0.7 yearly=LS_PhaseA daily=LS_PhaseA duty=LS_PhaseA
New Load.263534340_2 Phases= 1 Bus1=263534340.2 kV=7.1996 XFKVA=250.000000 PF= 0.98 status=variable Vminpu=0.7 yearly=LS_PhaseB daily=LS_PhaseB duty=LS_PhaseB
New Load.263534340_3 Phases= 1 Bus1=263534340.3 kV=7.1996 XFKVA=250.000000 PF= 0.98 status=variable Vminpu=0.7 yearly=LS_PhaseC daily=LS_PhaseC duty=LS_PhaseC
New Load.258896410_3 Phases= 1 Bus1=258896410.3 kV=7.1996 XFKVA=25.000000 PF= 0.98 status=variable Vminpu=0.7 yearly=LS_PhaseC daily=LS_PhaseC duty=LS_PhaseC
New Load.263534403_1 Phases= 1 Bus1=263534403.1 kV=7.1996 XFKVA=50.000000 PF= 0.98 status=variable Vminpu=0.7 yearly=LS_PhaseA daily=LS_PhaseA duty=LS_PhaseA
New Load.263534403_2 Phases= 1 Bus1=263534403.2 kV=7.1996 XFKVA=50.000000 PF= 0.98 status=variable Vminpu=0.7 yearly=LS_PhaseB daily=LS_PhaseB duty=LS_PhaseB
New Load.263534403_3 Phases= 1 Bus1=263534403.3 kV=7.1996 XFKVA=50.000000 PF= 0.98 status=variable Vminpu=0.7 yearly=LS_PhaseC daily=LS_PhaseC duty=LS_PhaseC
New Load.263974097_3 Phases= 1 Bus1=263974097.3 kV=7.1996 XFKVA=75.000000 PF= 0.98 status=variable Vminpu=0.7 yearly=LS_PhaseC daily=LS_PhaseC duty=LS_PhaseC
New Load.263532962_2 Phases= 1 Bus1=263532962.2 kV=7.1996 XFKVA=167.000000 PF= 0.98 status=variable Vminpu=0.7 yearly=LS_PhaseB daily=LS_PhaseB duty=LS_PhaseB
New Load.258896592_1 Phases= 1 Bus1=258896592.1 kV=7.1996 XFKVA=10.000000 PF= 0.98 status=variable Vminpu=0.7 yearly=LS_PhaseA daily=LS_PhaseA duty=LS_PhaseA
New Load.258896592_2 Phases= 1 Bus1=258896592.2 kV=7.1996 XFKVA=10.000000 PF= 0.98 status=variable Vminpu=0.7 yearly=LS_PhaseB daily=LS_PhaseB duty=LS_PhaseB
New Load.258896592_3 Phases= 1 Bus1=258896592.3 kV=7.1996 XFKVA=10.000000 PF= 0.98 status=variable Vminpu=0.7 yearly=LS_PhaseC daily=LS_PhaseC duty=LS_PhaseC
New Load.263532845_3 Phases= 1 Bus1=263532845.3 kV=7.1996 XFKVA=50.000000 PF= 0.98 status=variable Vminpu=0.7 yearly=LS_PhaseC daily=LS_PhaseC duty=LS_PhaseC
New Load.263681989_2 Phases= 1 Bus1=263681989.2 kV=7.1996 XFKVA=50.000000 PF= 0.98 status=variable Vminpu=0.7 yearly=LS_PhaseB daily=LS_PhaseB duty=LS_PhaseB
New Load.263532944_3 Phases= 1 Bus1=263532944.3 kV=7.1996 XFKVA=167.000000 PF= 0.98 status=variable Vminpu=0.7 yearly=LS_PhaseC daily=LS_PhaseC duty=LS_PhaseC
New Load.258896296_2 Phases= 1 Bus1=258896296.2 kV=7.1996 XFKVA=25.000000 PF= 0.98 status=variable Vminpu=0.7 yearly=LS_PhaseB daily=LS_PhaseB duty=LS_PhaseB
New Load.258896390_2 Phases= 1 Bus1=258896390.2 kV=7.1996 XFKVA=25.000000 PF= 0.98 status=variable Vminpu=0.7 yearly=LS_PhaseB daily=LS_PhaseB duty=LS_PhaseB
New Load.263534303_2 Phases= 1 Bus1=263534303.2 kV=7.1996 XFKVA=50.000000 PF= 0.98 status=variable Vminpu=0.7 yearly=LS_PhaseB daily=LS_PhaseB duty=LS_PhaseB
New Load.263532917_1 Phases= 1 Bus1=263532917.1 kV=7.1996 XFKVA=50.000000 PF= 0.98 status=variable Vminpu=0.7 yearly=LS_PhaseA daily=LS_PhaseA duty=LS_PhaseA
New Load.263534385_1 Phases= 1 Bus1=263534385.1 kV=7.1996 XFKVA=25.000000 PF= 0.98 status=variable Vminpu=0.7 yearly=LS_PhaseA daily=LS_PhaseA duty=LS_PhaseA
New Load.263532899_1 Phases= 1 Bus1=263532899.1 kV=7.1996 XFKVA=15.000000 PF= 0.98 status=variable Vminpu=0.7 yearly=LS_PhaseA daily=LS_PhaseA duty=LS_PhaseA
New Load.263532980_1 Phases= 1 Bus1=263532980.1 kV=7.1996 XFKVA=100.000000 PF= 0.98 status=variable Vminpu=0.7 yearly=LS_PhaseA daily=LS_PhaseA duty=LS_PhaseA
New Load.699603607_2 Phases= 1 Bus1=699603607.2 kV=7.1996 XFKVA=25.000000 PF= 0.98 status=variable Vminpu=0.7 yearly=LS_PhaseB daily=LS_PhaseB duty=LS_PhaseB
New Load.699624649_3 Phases= 1 Bus1=699624649.3 kV=7.1996 XFKVA=25.000000 PF= 0.98 status=variable Vminpu=0.7 yearly=LS_PhaseC daily=LS_PhaseC duty=LS_PhaseC
New Load.699624735_3 Phases= 1 Bus1=699624735.3 kV=7.1996 XFKVA=50.000000 PF= 0.98 status=variable Vminpu=0.7 yearly=LS_PhaseC daily=LS_PhaseC duty=LS_PhaseC
New Load.699623288_2 Phases= 1 Bus1=699623288.2 kV=7.1996 XFKVA=50.000000 PF= 0.98 status=variable Vminpu=0.7 yearly=LS_PhaseB daily=LS_PhaseB duty=LS_PhaseB
New Load.699646216_3 Phases= 1 Bus1=699646216.3 kV=7.1996 XFKVA=25.000000 PF= 0.98 status=variable Vminpu=0.7 yearly=LS_PhaseC daily=LS_PhaseC duty=LS_PhaseC
New Load.699623111_3 Phases= 1 Bus1=699623111.3 kV=7.1996 XFKVA=50.000000 PF= 0.98 status=variable Vminpu=0.7 yearly=LS_PhaseC daily=LS_PhaseC duty=LS_PhaseC
New Load.699624371_2 Phases= 1 Bus1=699624371.2 kV=7.1996 XFKVA=50.000000 PF= 0.98 status=variable Vminpu=0.7 yearly=LS_PhaseB daily=LS_PhaseB duty=LS_PhaseB
New Load.633960130_1 Phases= 1 Bus1=633960130.1 kV=7.1996 XFKVA=75.000000 PF= 0.98 status=variable Vminpu=0.7 yearly=LS_PhaseA daily=LS_PhaseA duty=LS_PhaseA
New Load.633960130_2 Phases= 1 Bus1=633960130.2 kV=7.1996 XFKVA=75.000000 PF= 0.98 status=variable Vminpu=0.7 yearly=LS_PhaseB daily=LS_PhaseB duty=LS_PhaseB
New Load.633960130_3 Phases= 1 Bus1=633960130.3 kV=7.1996 XFKVA=75.000000 PF= 0.98 status=variable Vminpu=0.7 yearly=LS_PhaseC daily=LS_PhaseC duty=LS_PhaseC
New Load.258907752_2 Phases= 1 Bus1=258907752.2 kV=7.1996 XFKVA=25.000000 PF= 0.98 status=variable Vminpu=0.7 yearly=LS_PhaseB daily=LS_PhaseB duty=LS_PhaseB
New Load.258907762_2 Phases= 1 Bus1=258907762.2 kV=7.1996 XFKVA=25.000000 PF= 0.98 status=variable Vminpu=0.7 yearly=LS_PhaseB daily=LS_PhaseB duty=LS_PhaseB
New Load.260762257_1 Phases= 1 Bus1=260762257.1 kV=7.1996 XFKVA=50.000000 PF= 0.98 status=variable Vminpu=0.7 yearly=LS_PhaseA daily=LS_PhaseA duty=LS_PhaseA
New Load.699625172_1 Phases= 1 Bus1=699625172.1 kV=7.1996 XFKVA=50.000000 PF= 0.98 status=variable Vminpu=0.7 yearly=LS_PhaseA daily=LS_PhaseA duty=LS_PhaseA
New Load.258904757_2 Phases= 1 Bus1=258904757.2 kV=7.1996 XFKVA=50.000000 PF= 0.98 status=variable Vminpu=0.7 yearly=LS_PhaseB daily=LS_PhaseB duty=LS_PhaseB
New Load.258907732_3 Phases= 1 Bus1=258907732.3 kV=7.1996 XFKVA=50.000000 PF= 0.98 status=variable Vminpu=0.7 yearly=LS_PhaseC daily=LS_PhaseC duty=LS_PhaseC
New Load.258904762_2 Phases= 1 Bus1=258904762.2 kV=7.1996 XFKVA=50.000000 PF= 0.98 status=variable Vminpu=0.7 yearly=LS_PhaseB daily=LS_PhaseB duty=LS_PhaseB
New Load.258904641_3 Phases= 1 Bus1=258904641.3 kV=7.1996 XFKVA=50.000000 PF= 0.98 status=variable Vminpu=0.7 yearly=LS_PhaseC daily=LS_PhaseC duty=LS_PhaseC
New Load.258904737_2 Phases= 1 Bus1=258904737.2 kV=7.1996 XFKVA=50.000000 PF= 0.98 status=variable Vminpu=0.7 yearly=LS_PhaseB daily=LS_PhaseB duty=LS_PhaseB
New Load.258907718_3 Phases= 1 Bus1=258907718.3 kV=7.1996 XFKVA=25.000000 PF= 0.98 status=variable Vminpu=0.7 yearly=LS_PhaseC daily=LS_PhaseC duty=LS_PhaseC
New Load.699643891_2 Phases= 1 Bus1=699643891.2 kV=7.1996 XFKVA=50.000000 PF= 0.98 status=variable Vminpu=0.7 yearly=LS_PhaseB daily=LS_PhaseB duty=LS_PhaseB
New Load.258904779_2 Phases= 1 Bus1=258904779.2 kV=7.1996 XFKVA=50.000000 PF= 0.98 status=variable Vminpu=0.7 yearly=LS_PhaseB daily=LS_PhaseB duty=LS_PhaseB
New Load.258907683_2 Phases= 1 Bus1=258907683.2 kV=7.1996 XFKVA=50.000000 PF= 0.98 status=variable Vminpu=0.7 yearly=LS_PhaseB daily=LS_PhaseB duty=LS_PhaseB
New Load.466941352_1 Phases= 1 Bus1=466941352.1 kV=7.1996 XFKVA=25.000000 PF= 0.98 status=variable Vminpu=0.7 yearly=LS_PhaseA daily=LS_PhaseA duty=LS_PhaseA
New Load.258907698_3 Phases= 1 Bus1=258907698.3 kV=7.1996 XFKVA=25.000000 PF= 0.98 status=variable Vminpu=0.7 yearly=LS_PhaseC daily=LS_PhaseC duty=LS_PhaseC
New Load.258907703_3 Phases= 1 Bus1=258907703.3 kV=7.1996 XFKVA=25.000000 PF= 0.98 status=variable Vminpu=0.7 yearly=LS_PhaseC daily=LS_PhaseC duty=LS_PhaseC
New Load.260761263_3 Phases= 1 Bus1=260761263.3 kV=7.1996 XFKVA=50.000000 PF= 0.98 status=variable Vminpu=0.7 yearly=LS_PhaseC daily=LS_PhaseC duty=LS_PhaseC
New Load.258904543_1 Phases= 1 Bus1=258904543.1 kV=7.1996 XFKVA=25.000000 PF= 0.98 status=variable Vminpu=0.7 yearly=LS_PhaseA daily=LS_PhaseA duty=LS_PhaseA
New Load.258904678_3 Phases= 1 Bus1=258904678.3 kV=7.1996 XFKVA=50.000000 PF= 0.98 status=variable Vminpu=0.7 yearly=LS_PhaseC daily=LS_PhaseC duty=LS_PhaseC
New Load.699624092_2 Phases= 1 Bus1=699624092.2 kV=7.1996 XFKVA=50.000000 PF= 0.98 status=variable Vminpu=0.7 yearly=LS_PhaseB daily=LS_PhaseB duty=LS_PhaseB
New Load.258904243_1 Phases= 1 Bus1=258904243.1 kV=7.1996 XFKVA=50.000000 PF= 0.98 status=variable Vminpu=0.7 yearly=LS_PhaseA daily=LS_PhaseA duty=LS_PhaseA
New Load.258904784_2 Phases= 1 Bus1=258904784.2 kV=7.1996 XFKVA=50.000000 PF= 0.98 status=variable Vminpu=0.7 yearly=LS_PhaseB daily=LS_PhaseB duty=LS_PhaseB
New Load.260761243_3 Phases= 1 Bus1=260761243.3 kV=7.1996 XFKVA=50.000000 PF= 0.98 status=variable Vminpu=0.7 yearly=LS_PhaseC daily=LS_PhaseC duty=LS_PhaseC
New Load.699625094_1 Phases= 1 Bus1=699625094.1 kV=7.1996 XFKVA=50.000000 PF= 0.98 status=variable Vminpu=0.7 yearly=LS_PhaseA daily=LS_PhaseA duty=LS_PhaseA
New Load.258904483_3 Phases= 1 Bus1=258904483.3 kV=7.1996 XFKVA=25.000000 PF= 0.98 status=variable Vminpu=0.7 yearly=LS_PhaseC daily=LS_PhaseC duty=LS_PhaseC
New Load.258904401_1 Phases= 1 Bus1=258904401.1 kV=7.1996 XFKVA=50.000000 PF= 0.98 status=variable Vminpu=0.7 yearly=LS_PhaseA daily=LS_PhaseA duty=LS_PhaseA
New Load.699645954_1 Phases= 1 Bus1=699645954.1 kV=7.1996 XFKVA=50.000000 PF= 0.98 status=variable Vminpu=0.7 yearly=LS_PhaseA daily=LS_PhaseA duty=LS_PhaseA
New Load.260761343_1 Phases= 1 Bus1=260761343.1 kV=7.1996 XFKVA=167.000000 PF= 0.98 status=variable Vminpu=0.7 yearly=LS_PhaseA daily=LS_PhaseA duty=LS_PhaseA
New Load.258904411_1 Phases= 1 Bus1=258904411.1 kV=7.1996 XFKVA=75.000000 PF= 0.98 status=variable Vminpu=0.7 yearly=LS_PhaseA daily=LS_PhaseA duty=LS_PhaseA
New Load.699603852_1 Phases= 1 Bus1=699603852.1 kV=7.1996 XFKVA=25.000000 PF= 0.98 status=variable Vminpu=0.7 yearly=LS_PhaseA daily=LS_PhaseA duty=LS_PhaseA
New Load.699603852_2 Phases= 1 Bus1=699603852.2 kV=7.1996 XFKVA=25.000000 PF= 0.98 status=variable Vminpu=0.7 yearly=LS_PhaseB daily=LS_PhaseB duty=LS_PhaseB
New Load.699603852_3 Phases= 1 Bus1=699603852.3 kV=7.1996 XFKVA=25.000000 PF= 0.98 status=variable Vminpu=0.7 yearly=LS_PhaseC daily=LS_PhaseC duty=LS_PhaseC
New Load.263681998_2 Phases= 1 Bus1=263681998.2 kV=7.1996 XFKVA=25.000000 PF= 0.98 status=variable Vminpu=0.7 yearly=LS_PhaseB daily=LS_PhaseB duty=LS_PhaseB
New Load.258904154_3 Phases= 1 Bus1=258904154.3 kV=7.1996 XFKVA=50.000000 PF= 0.98 status=variable Vminpu=0.7 yearly=LS_PhaseC daily=LS_PhaseC duty=LS_PhaseC
New Load.260761218_2 Phases= 1 Bus1=260761218.2 kV=7.1996 XFKVA=50.000000 PF= 0.98 status=variable Vminpu=0.7 yearly=LS_PhaseB daily=LS_PhaseB duty=LS_PhaseB
New Load.260761163_2 Phases= 1 Bus1=260761163.2 kV=7.1996 XFKVA=100.000000 PF= 0.98 status=variable Vminpu=0.7 yearly=LS_PhaseB daily=LS_PhaseB duty=LS_PhaseB
New Load.260761223_2 Phases= 1 Bus1=260761223.2 kV=7.1996 XFKVA=50.000000 PF= 0.98 status=variable Vminpu=0.7 yearly=LS_PhaseB daily=LS_PhaseB duty=LS_PhaseB
New Load.258904166_3 Phases= 1 Bus1=258904166.3 kV=7.1996 XFKVA=50.000000 PF= 0.98 status=variable Vminpu=0.7 yearly=LS_PhaseC daily=LS_PhaseC duty=LS_PhaseC
New Load.258908462_2 Phases= 1 Bus1=258908462.2 kV=7.1996 XFKVA=50.000000 PF= 0.98 status=variable Vminpu=0.7 yearly=LS_PhaseB daily=LS_PhaseB duty=LS_PhaseB
New Load.258904045_2 Phases= 1 Bus1=258904045.2 kV=7.1996 XFKVA=50.000000 PF= 0.98 status=variable Vminpu=0.7 yearly=LS_PhaseB daily=LS_PhaseB duty=LS_PhaseB
New Load.637684623_2 Phases= 1 Bus1=637684623.2 kV=7.1996 XFKVA=75.000000 PF= 0.98 status=variable Vminpu=0.7 yearly=LS_PhaseB daily=LS_PhaseB duty=LS_PhaseB
New Load.258904323_2 Phases= 1 Bus1=258904323.2 kV=7.1996 XFKVA=25.000000 PF= 0.98 status=variable Vminpu=0.7 yearly=LS_PhaseB daily=LS_PhaseB duty=LS_PhaseB
New Load.258903960_1 Phases= 1 Bus1=258903960.1 kV=7.1996 XFKVA=50.000000 PF= 0.98 status=variable Vminpu=0.7 yearly=LS_PhaseA daily=LS_PhaseA duty=LS_PhaseA
New Load.258903960_2 Phases= 1 Bus1=258903960.2 kV=7.1996 XFKVA=50.000000 PF= 0.98 status=variable Vminpu=0.7 yearly=LS_PhaseB daily=LS_PhaseB duty=LS_PhaseB
New Load.258903960_3 Phases= 1 Bus1=258903960.3 kV=7.1996 XFKVA=50.000000 PF= 0.98 status=variable Vminpu=0.7 yearly=LS_PhaseC daily=LS_PhaseC duty=LS_PhaseC
New Load.261245655_2 Phases= 1 Bus1=261245655.2 kV=7.1996 XFKVA=50.000000 PF= 0.98 status=variable Vminpu=0.7 yearly=LS_PhaseB daily=LS_PhaseB duty=LS_PhaseB
New Load.258904137_3 Phases= 1 Bus1=258904137.3 kV=7.1996 XFKVA=167.000000 PF= 0.98 status=variable Vminpu=0.7 yearly=LS_PhaseC daily=LS_PhaseC duty=LS_PhaseC
New Load.258904278_2 Phases= 1 Bus1=258904278.2 kV=7.1996 XFKVA=25.000000 PF= 0.98 status=variable Vminpu=0.7 yearly=LS_PhaseB daily=LS_PhaseB duty=LS_PhaseB
New Load.260761278_3 Phases= 1 Bus1=260761278.3 kV=7.1996 XFKVA=167.000000 PF= 0.98 status=variable Vminpu=0.7 yearly=LS_PhaseC daily=LS_PhaseC duty=LS_PhaseC
New Load.260761198_2 Phases= 1 Bus1=260761198.2 kV=7.1996 XFKVA=50.000000 PF= 0.98 status=variable Vminpu=0.7 yearly=LS_PhaseB daily=LS_PhaseB duty=LS_PhaseB
New Load.261245654_2 Phases= 1 Bus1=261245654.2 kV=7.1996 XFKVA=50.000000 PF= 0.98 status=variable Vminpu=0.7 yearly=LS_PhaseB daily=LS_PhaseB duty=LS_PhaseB
New Load.260761203_2 Phases= 1 Bus1=260761203.2 kV=7.1996 XFKVA=50.000000 PF= 0.98 status=variable Vminpu=0.7 yearly=LS_PhaseB daily=LS_PhaseB duty=LS_PhaseB
New Load.258903838_1 Phases= 1 Bus1=258903838.1 kV=7.1996 XFKVA=25.000000 PF= 0.98 status=variable Vminpu=0.7 yearly=LS_PhaseA daily=LS_PhaseA duty=LS_PhaseA
New Load.258903838_2 Phases= 1 Bus1=258903838.2 kV=7.1996 XFKVA=25.000000 PF= 0.98 status=variable Vminpu=0.7 yearly=LS_PhaseB daily=LS_PhaseB duty=LS_PhaseB
New Load.258903838_3 Phases= 1 Bus1=258903838.3 kV=7.1996 XFKVA=25.000000 PF= 0.98 status=variable Vminpu=0.7 yearly=LS_PhaseC daily=LS_PhaseC duty=LS_PhaseC
New Load.258904298_2 Phases= 1 Bus1=258904298.2 kV=7.1996 XFKVA=50.000000 PF= 0.98 status=variable Vminpu=0.7 yearly=LS_PhaseB daily=LS_PhaseB duty=LS_PhaseB
New Load.258904379_2 Phases= 1 Bus1=258904379.2 kV=7.1996 XFKVA=100.000000 PF= 0.98 status=variable Vminpu=0.7 yearly=LS_PhaseB daily=LS_PhaseB duty=LS_PhaseB
New Load.260761298_3 Phases= 1 Bus1=260761298.3 kV=7.1996 XFKVA=167.000000 PF= 0.98 status=variable Vminpu=0.7 yearly=LS_PhaseC daily=LS_PhaseC duty=LS_PhaseC
New Load.258904120_1 Phases= 1 Bus1=258904120.1 kV=7.1996 XFKVA=100.000000 PF= 0.98 status=variable Vminpu=0.7 yearly=LS_PhaseA daily=LS_PhaseA duty=LS_PhaseA
New Load.699624854_3 Phases= 1 Bus1=699624854.3 kV=7.1996 XFKVA=50.000000 PF= 0.98 status=variable Vminpu=0.7 yearly=LS_PhaseC daily=LS_PhaseC duty=LS_PhaseC
New Load.258908360_1 Phases= 1 Bus1=258908360.1 kV=7.1996 XFKVA=25.000000 PF= 0.98 status=variable Vminpu=0.7 yearly=LS_PhaseA daily=LS_PhaseA duty=LS_PhaseA
New Load.258904000_1 Phases= 1 Bus1=258904000.1 kV=7.1996 XFKVA=10.000000 PF= 0.98 status=variable Vminpu=0.7 yearly=LS_PhaseA daily=LS_PhaseA duty=LS_PhaseA
New Load.258904000_2 Phases= 1 Bus1=258904000.2 kV=7.1996 XFKVA=10.000000 PF= 0.98 status=variable Vminpu=0.7 yearly=LS_PhaseB daily=LS_PhaseB duty=LS_PhaseB
New Load.258904000_3 Phases= 1 Bus1=258904000.3 kV=7.1996 XFKVA=10.000000 PF= 0.98 status=variable Vminpu=0.7 yearly=LS_PhaseC daily=LS_PhaseC duty=LS_PhaseC
New Load.263530747_1 Phases= 1 Bus1=263530747.1 kV=7.1996 XFKVA=50.000000 PF= 0.98 status=variable Vminpu=0.7 yearly=LS_PhaseA daily=LS_PhaseA duty=LS_PhaseA
New Load.263530747_2 Phases= 1 Bus1=263530747.2 kV=7.1996 XFKVA=50.000000 PF= 0.98 status=variable Vminpu=0.7 yearly=LS_PhaseB daily=LS_PhaseB duty=LS_PhaseB
New Load.263530747_3 Phases= 1 Bus1=263530747.3 kV=7.1996 XFKVA=50.000000 PF= 0.98 status=variable Vminpu=0.7 yearly=LS_PhaseC daily=LS_PhaseC duty=LS_PhaseC
New Load.258908425_3 Phases= 1 Bus1=258908425.3 kV=7.1996 XFKVA=25.000000 PF= 0.98 status=variable Vminpu=0.7 yearly=LS_PhaseC daily=LS_PhaseC duty=LS_PhaseC
New Load.704839480_3 Phases= 1 Bus1=704839480.3 kV=7.1996 XFKVA=167.000000 PF= 0.98 status=variable Vminpu=0.7 yearly=LS_PhaseC daily=LS_PhaseC duty=LS_PhaseC
New Load.258908245_3 Phases= 1 Bus1=258908245.3 kV=7.1996 XFKVA=25.000000 PF= 0.98 status=variable Vminpu=0.7 yearly=LS_PhaseC daily=LS_PhaseC duty=LS_PhaseC