New loadshape.LS_PhaseA npts=1440 sinterval=60 pmult=(1346.927915 1347.349976 1346.784423 1346.194906 1345.598235 1345.014763 1344.465330 1343.968196 1343.536086 1343.173521 1342.874562 1342.621094 1342.912264 1343.127902 1343.167382 1342.924018 1342.289708 1341.159908 1339.438711 1337.043846 1333.911393 1330.000000 1324.282252 1317.871100 1310.891181 1303.486599 1295.815286 1288.042955 1280.336866 1272.859628 1265.763260 1259.183716 1253.609728 1248.725064 1244.562425 1241.129041 1238.407696 1236.358597 1234.922025 1234.021631 1233.568255 1233.464111 1233.010688 1232.755316 1232.647907 1232.639869 1232.684757 1232.738857 1232.761698 1232.716512 1232.570638 1232.295898 1231.870389 1231.274522 1230.495213 1229.524925 1228.361847 1227.010009 1225.479327 1223.785562 1221.950165 1220.000000 1217.407031 1214.814617 1212.307598 1209.967382 1207.868049 1206.072752 1204.630528 1203.573652 1202.915646 1202.650024 1203.156348 1203.948217 1204.926822 1205.980790 1206.991064 1207.836149 1208.397528 1208.565046 1208.242033 1207.349976 1204.687864 1201.466595 1197.774199 1193.714484 1189.401235 1184.952116 1180.482529 1176.099684 1171.897125 1167.949951 1165.114260 1162.545666 1160.180835 1157.938383 1155.723842 1153.435311 1150.969524 1148.228110 1145.123761 1141.586060 1136.520316 1131.042441 1125.243634 1119.234970 1113.143047 1107.105060 1101.263493 1095.760620 1090.733017 1086.306274 1082.856047 1080.181488 1078.327440 1077.315427 1077.143097 1077.784429 1079.190698 1081.292150 1084.000325 1087.210937 1090.455856 1093.992444 1097.718019 1101.524845 1105.302419 1108.939886 1112.328548 1115.364398 1117.950620 1120.000000 1121.260682 1121.863226 1121.775769 1120.981422 1119.478437 1117.280097 1114.414326 1110.923043 1106.861252 1102.295898 1096.989033 1091.369131 1085.555228 1079.668185 1073.827061 1068.145637 1062.729192 1057.671637 1053.053075 1048.937866 1045.347030 1042.338532 1039.925598 1038.103389 1036.849845 1036.127084 1035.883296 1036.055076 1036.570106 1037.350098 1038.100054 1038.972786 1039.907474 1040.846907 1041.739128 1042.538903 1043.208977 1043.721077 1044.056628 1044.207153 1043.692398 1043.045693 1042.326646 1041.597902 1040.921394 1040.354664 1039.947406 1039.738366 1039.752734 1040.000122 1040.813841 1041.800134 1042.889573 1044.000185 1045.040949 1045.915769 1046.527749 1046.783628 1046.598182 1045.898437 1043.848998 1041.257990 1038.171990 1034.652557 1030.773338 1026.616827 1022.270950 1017.825573 1013.369105 1008.985291 1005.124812 1001.447440 997.977580 994.730605 991.713992 988.928804 986.371429 984.035475 981.913718 980.000000 977.481588 975.237589 973.339024 971.853930 970.843538 970.358585 970.435913 971.095504 972.338107 974.143555 977.037531 980.340838 983.923339 987.642118 991.347044 994.886705 998.114514 1000.894745 1003.108280 1004.657837 1004.473715 1003.599295 1002.105650 1000.086249 997.652017 994.925868 992.036933 989.114703 986.283314 983.656189 981.864067 980.406092 979.295525 978.526890 978.077530 977.909853 977.974172 978.211989 978.559588 978.951782 978.645885 978.324018 977.992077 977.659877 977.339988 977.046464 976.793494 976.594080 976.458780 976.394592 976.434102 976.540813 976.704384 976.909332 977.135342 977.357857 977.548923 977.678265 977.714567 977.626892 977.236459 976.681242 975.952458 975.045975 973.962928 972.710260 971.301167 969.755422 968.099536 966.366760 964.147475 961.974380 959.934944 958.116302 956.601866 955.468073 954.781372 954.595574 954.949653 955.866089 957.615663 959.897402 962.659251 965.835329 969.348860 973.115498 977.046925 981.054567 985.053295 988.964966 991.995626 994.878377 997.631539 1000.282073 1002.862827 1005.409575 1007.958001 1010.540742 1013.184642 1015.908325 1019.016969 1022.184407 1025.371253 1028.528785 1031.600815 1034.525995 1037.240429 1039.680524 1041.785945 1043.502563 1044.352420 1044.773256 1044.779640 1044.396603 1043.658745 1042.609085 1041.297699 1039.780189 1038.116027 1036.366821 1034.363769 1032.416538 1030.601386 1028.987504 1027.634354 1026.589343 1025.885911 1025.542117 1025.559757 1025.924072 1026.744675 1027.823515 1029.088921 1030.458808 1031.843910 1033.151302 1034.288115 1035.165282 1035.701206 1035.825195 1034.774948 1033.275603 1031.362135 1029.081599 1026.490223 1023.650263 1020.626790 1017.484528 1014.284900 1011.083374 1008.314881 1005.595874 1002.921940 1000.281666 997.658754 995.034487 992.390405 989.711095 986.986936 984.216675 980.733902 977.294850 973.989019 970.912662 968.165455 965.846970 964.053089 962.872485 962.383282 962.650024 963.706534 965.596681 968.332167 971.904021 976.282206 981.415901 987.234456 993.649002 1000.554681 1007.833435 1015.381911 1023.040987 1030.671708 1038.136904 1045.305537 1052.056963 1058.284976 1063.901475 1068.839646 1073.056519 1075.731846 1077.745116 1079.196999 1080.205370 1080.899565 1081.414346 1081.883819 1082.435537 1083.184991 1084.230713 1086.092022 1088.341370 1090.970539 1093.949116 1097.226859 1100.736872 1104.399466 1108.126540 1111.826310 1115.408203 1118.189213 1120.746756 1123.069384 1125.157198 1127.021823 1128.686016 1130.182940 1131.555116 1132.853118 1134.134033 1135.264913 1136.519988 1137.981103 1139.727271 1141.831680 1144.358905 1147.362409 1150.882419 1154.944249 1159.557129 1164.652754 1170.272298 1176.380166 1182.924920 1189.840522 1197.048093 1204.458128 1211.973115 1219.490458 1226.905640 1233.863184 1240.539166 1246.862936 1252.771764 1258.212334 1263.142041 1267.530086 1271.358312 1274.621769 1277.328979 1279.022015 1280.254859 1281.113529 1281.690154 1282.079141 1282.373381 1282.660664 1283.020413 1283.520867 1284.216797 1285.429150 1286.876552 1288.543707 1290.402573 1292.414959 1294.535542 1296.715198 1298.904486 1301.057143 1303.133423 1304.324126 1305.456967 1306.590291 1307.789163 1309.122091 1310.657556 1312.460493 1314.588858 1317.090437 1320.000000 1323.464406 1327.345762 1331.618171 1336.238682 1341.148154 1346.272739 1351.525929 1356.811117 1362.024588 1367.058838 1371.499371 1375.575894 1379.215374 1382.351687 1384.927378 1386.895291 1388.220052 1388.879343 1388.864941 1388.183472 1386.496222 1384.231314 1381.470076 1378.304294 1374.833339 1371.161179 1367.393390 1363.634227 1359.983867 1356.535889 1353.273131 1350.379782 1347.925999 1345.967658 1344.545229 1343.683143 1343.389689 1343.657418 1344.464026 1345.773682 1347.187921 1349.030245 1351.263744 1353.842480 1356.712268 1359.811715 1363.073522 1366.426022 1369.794926 1373.105225 1376.103220 1378.913885 1381.486800 1383.777041 1385.746191 1387.363294 1388.605743 1389.460074 1389.922640 1390.000122 1389.459987 1388.602036 1387.484989 1386.175017 1384.743882 1383.266994 1381.821437 1380.484016 1379.329357 1378.428101 1377.325779 1376.642240 1376.468587 1376.880616 1377.935209 1379.667332 1382.087763 1385.181655 1388.908004 1393.200073 1398.276202 1403.688690 1409.280730 1414.884143 1420.325751 1425.434086 1430.046213 1434.014421 1437.212535 1439.541626 1439.900445 1439.380617 1438.072553 1436.094930 1433.589418 1430.714748 1427.640377 1424.539956 1421.584858 1418.937988 1417.168167 1415.947531 1415.349106 1415.424411 1416.203429 1417.695364 1419.890125 1422.760440 1426.264479 1430.348877 1434.160435 1438.492261 1443.339228 1448.688662 1454.519190 1460.799801 1467.489158 1474.535255 1481.875444 1489.436890 1497.352872 1505.299564 1513.163449 1520.829391 1528.184227 1535.120456 1541.539918 1547.357319 1552.503468 1556.928101 1559.831584 1562.043938 1563.644283 1564.726908 1565.396687 1565.764228 1565.940969 1566.034366 1566.143377 1566.354370 1566.846523 1567.551645 1568.491830 1569.668579 1571.063048 1572.637106 1574.335151 1576.086619 1577.809087 1579.411865 1580.345336 1581.008672 1581.346877 1581.307889 1580.844255 1579.914807 1578.486286 1576.534905 1574.047773 1571.024170 1567.301182 1563.095841 1558.463236 1553.471207 1548.199300 1542.737487 1537.184658 1531.646918 1526.235711 1521.065796 1515.730697 1510.910957 1506.760036 1503.419967 1501.016361 1499.653864 1499.412194 1500.342922 1502.467096 1505.773804 1510.271248 1515.828207 1522.335285 1529.656107 1537.631091 1546.082013 1554.817225 1563.637358 1572.341362 1580.732666 1588.137875 1594.917948 1600.963831 1606.187408 1610.523142 1613.929198 1616.388044 1617.906506 1618.515306 1618.268066 1616.765808 1614.615514 1611.967048 1608.979517 1605.815728 1602.636734 1599.596625 1596.837761 1594.486565 1592.650024 1591.532406 1591.065226 1591.274904 1592.164323 1593.714368 1595.886231 1598.624386 1601.860099 1605.515324 1609.506836 1612.951239 1616.634945 1620.547593 1624.680119 1629.023622 1633.568190 1638.301772 1643.209173 1648.271227 1653.464233 1658.973675 1664.533834 1670.090015 1675.586351 1680.967938 1686.183102 1691.185691 1695.937300 1700.409321 1704.584717 1707.421206 1710.053704 1712.589663 1715.139197 1717.809023 1720.696570 1723.884487 1727.435805 1731.389927 1735.759644 1741.204727 1746.947983 1752.862481 1758.802672 1764.611128 1770.125940 1775.188474 1779.651202 1783.385284 1786.287598 1786.949267 1786.788556 1785.918539 1784.479915 1782.634838 1780.560063 1778.439661 1776.457579 1774.790313 1773.599976 1773.381797 1773.864103 1775.104011 1777.129346 1779.938403 1783.500789 1787.759265 1792.632522 1798.018777 1803.800049 1809.350481 1815.075297 1820.877095 1826.656872 1832.316666 1837.762231 1842.905659 1847.667889 1851.981026 1855.790405 1858.555287 1860.795006 1862.543674 1863.847564 1864.762490 1865.351023 1865.679670 1865.816124 1865.826663 1865.773804 1865.565928 1865.412235 1865.365441 1865.467316 1865.747586 1866.223386 1866.899280 1867.767828 1868.810676 1870.000122 1871.004798 1872.107277 1873.288169 1874.524588 1875.791369 1877.062425 1878.312220 1879.517285 1880.657721 1881.718628 1882.130279 1882.499930 1882.879382 1883.322809 1883.884057 1884.613986 1885.557961 1886.753582 1888.228749 1890.000122 1891.751348 1893.819796 1896.209971 1898.910531 1901.893558 1905.114523 1908.512982 1912.014001 1915.530286 1918.964966 1922.374393 1925.482904 1928.173566 1930.337118 1931.877384 1932.716514 1932.799842 1932.100152 1930.621158 1928.400024 1924.077502 1919.311930 1914.358929 1909.489580 1904.979316 1901.096611 1898.091887 1896.187055 1895.566064 1896.366821 1899.525413 1904.145866 1910.129781 1917.329157 1925.552735 1934.573887 1944.139762 1953.981336 1963.824021 1973.398437 1981.318173 1988.588155 1995.104846 2000.793733 2005.609887 2009.537632 2012.589390 2014.803783 2016.243062 2016.989990 2016.824799 2016.203291 2015.273480 2014.185082 2013.083625 2012.104904 2011.369983 2010.980891 2011.017162 2011.533325 2012.705939 2014.376214 2016.506913 2019.037746 2021.888834 2024.964942 2028.160315 2031.363921 2034.464906 2037.358032 2038.983571 2040.311291 2041.358996 2042.156495 2042.743177 2043.165279 2043.472987 2043.717495 2043.948136 2044.209717 2044.430182 2044.755436 2045.213520 2045.820289 2046.578354 2047.476655 2048.490686 2049.583360 2050.706515 2051.802979 2052.697792 2053.446966 2053.991710 2054.274970 2054.244481 2053.855851 2053.075553 2051.883699 2050.276468 2048.268066 2044.913859 2041.328499 2037.664116 2034.081148 2030.741754 2027.803150 2025.411138 2023.694045 2022.757297 2022.678833 2023.695940 2025.613905 2028.396463 2031.975076 2036.251211 2041.099724 2046.373216 2051.907244 2057.526183 2063.049561 2067.927793 2072.396819 2076.329774 2079.615755 2082.163448 2083.904270 2084.794897 2084.819111 2083.988860 2082.344482 2078.858426 2074.811137 2070.408672 2065.865508 2061.394819 2057.198862 2053.459842 2050.331589 2047.932370 2046.339111 2046.422936 2047.257136 2048.709912 2050.612208 2052.765485 2054.950703 2056.938166 2058.497861 2059.409890 2059.474609 2057.025794 2053.557890 2049.102993 2043.726228 2037.521714 2030.607641 2023.120699 2015.210066 2007.031212 1998.739746 1990.853316 1983.109377 1975.601908 1968.409633 1961.594855 1955.203021 1949.262990 1943.787952 1938.776936 1934.216797 1929.375916 1924.994937 1921.095517 1917.689360 1914.777349 1912.349004 1910.382318 1908.843984 1907.690023 1906.866821 1906.183582 1905.712532 1905.391139 1905.153208 1904.930707 1904.655791 1904.262946 1903.691200 1902.886310 1901.802856 1899.706935 1897.334797 1894.733714 1891.957673 1889.064307 1886.111862 1883.156341 1880.248922 1877.433776 1874.746338 1872.361367 1870.132880 1868.053172 1866.106088 1864.268932 1862.514778 1860.815062 1859.142343 1857.473099 1855.790405 1853.071916 1850.421883 1847.937174 1845.716804 1843.857151 1842.447233 1841.564259 1841.269604 1841.605410 1842.591919 1844.549392 1847.098411 1850.160792 1853.638828 1857.419066 1861.376772 1865.380903 1869.299406 1873.004650 1876.378784 1878.396869 1879.977102 1881.132637 1881.892460 1882.298927 1882.404971 1882.271082 1881.962212 1881.544704 1881.083374 1880.616017 1880.220166 1879.943645 1879.824397 1879.889411 1880.154191 1880.622754 1881.288158 1882.133511 1883.133423 1883.908837 1884.801295 1885.799165 1886.886702 1888.044728 1889.251487 1890.483638 1891.717360 1892.929503 1894.098755 1894.515503 1894.914230 1895.340821 1895.838995 1896.447193 1897.195716 1898.104244 1899.179852 1900.415621 1901.789917 1903.611448 1905.456771 1907.235221 1908.849513 1910.200335 1911.191229 1911.733566 1911.751409 1911.186066 1910.000122 1906.885904 1903.262355 1899.275726 1895.086507 1890.862046 1886.768959 1882.965634 1879.595117 1876.778668 1874.610229 1873.880703 1873.826560 1874.380629 1875.447453 1876.908377 1878.627569 1880.458750 1882.252339 1883.862747 1885.155518 1884.635999 1883.707909 1882.417042 1880.826077 1879.010170 1877.052153 1875.037569 1873.049741 1871.165122 1869.449097 1868.611559 1867.970466 1867.487402 1867.111384 1866.782360 1866.435234 1866.004223 1865.427345 1864.650840 1863.633301 1860.953435 1858.119716 1855.258258 1852.501634 1849.981967 1847.823998 1846.138404 1845.015662 1844.520704 1844.688599 1846.245837 1848.373403 1850.946013 1853.812966 1856.804565 1859.739404 1862.432277 1864.702388 1866.381562 1867.322144 1866.304247 1864.438815 1861.766604 1858.358543 1854.312485 1849.749156 1844.807429 1839.639107 1834.403395 1829.261230 1824.138623 1819.430600 1815.289856 1811.848240 1809.211662 1807.455905 1806.623512 1806.721821 1807.722260 1809.560913 1812.384950 1815.803893 1819.643543 1823.711066 1827.802414 1831.710264 1835.232189 1838.178775 1840.381395 1841.699341 1840.783038 1838.914516 1836.168601 1832.651161 1828.493437 1823.845654 1818.870155 1813.734335 1808.603640 1803.634888 1799.323658 1795.406043 1791.951887 1789.007701 1786.596332 1784.717605 1783.349902 1782.452569 1781.969064 1781.830688 1781.366305 1781.143110 1781.128748 1781.289138 1781.589708 1781.996694 1782.478456 1783.006783 1783.558148 1784.114868 1784.328369 1784.561964 1784.847872 1785.223205 1785.728338 1786.405231 1787.295759 1788.440092 1789.875188 1791.633423 1793.322695 1795.416159 1797.959743 1800.986687 1804.515063 1808.545842 1813.061573 1818.025740 1823.382843 1829.059204 1834.900139 1840.871511 1846.861918 1852.750884 1858.412387 1863.718760 1868.544859 1872.772343 1876.293948 1879.017578 1880.301583 1880.713262 1880.271865 1879.017034 1877.007201 1874.317572 1871.037745 1867.269063 1863.121746 1858.711914 1853.788134 1848.869596 1844.101955 1839.621049 1835.548410 1831.987306 1829.019442 1826.702416 1825.068024 1824.121460 1823.895620 1824.286321 1825.218659 1826.597332 1828.310419 1830.233744 1832.235680 1834.182216 1835.942114 1837.391968 1837.555271 1837.277960 1836.555918 1835.398811 1833.827830 1831.873166 1829.571327 1826.962439 1824.087639 1820.986694 1817.850306 1814.541457 1811.072912 1807.452321 1803.682824 1799.764065 1795.693551 1791.468293 1787.086633 1782.550171 1777.290334 1771.946925 1766.587859 1761.284142 1756.107936 1751.130617 1746.420893 1742.043045 1738.055320 1734.508545 1731.264528 1728.552185 1726.408484 1724.857823 1723.911046 1723.564853 1723.801634 1724.589703 1725.883946 1727.626831 1729.226359 1731.172338 1733.421039 1735.917328 1738.594164 1741.372557 1744.161991 1746.861391 1749.360594 1751.542358 1753.405582 1754.697399 1755.285925 1755.045591 1753.861576 1751.634224 1748.283299 1743.751920 1738.010010 1731.057129 1722.026121 1711.956525 1701.017205 1689.399054 1677.308606 1664.961291 1652.574556 1640.361082 1628.522322 1617.242554 1606.934780 1597.461148 1588.906607 1581.326558 1574.746968 1569.165445 1564.553215 1560.857887 1558.006902 1555.911499 1553.851550 1552.393540 1551.475781 1551.030934 1550.987098 1551.268979 1551.799105 1552.499097 1553.290979 1554.098511 1554.645839 1555.083862 1555.365666 1555.448904 1555.295849 1554.873452 1554.153450 1553.112497 1551.732358 1550.000122 1547.689042 1545.036760 1542.065220 1538.800080 1535.269820 1531.504950 1527.537337 1523.399655 1519.124952 1514.746338 1509.892933 1505.036274 1500.240760 1495.565702 1491.063259 1486.776678 1482.738895 1478.971530 1475.484325 1472.275024 1469.165079 1466.308880 1463.684950 1461.261702 1458.998479 1456.846971 1454.752968 1452.658393 1450.503546 1448.229492 1445.487930 1442.547525 1439.389178 1436.000299 1432.375192 1428.515328 1424.429495 1420.133818 1415.651649 1411.013306 1405.891261 1400.723760 1395.588062 1390.561705 1385.719641 1381.131510 1376.859141 1372.954372 1369.457247 1366.394653 1363.625639 1361.315534 1359.460774 1358.042408 1357.026434 1356.364697 1355.996314 1355.849597 ) qmult=(320.490287 320.000002 320.095769 320.706219 321.795282 323.313369 325.198802 327.379603 329.775569 332.300594 334.865166 337.378967 339.824110 342.041269 343.947388 345.469240 346.545893 347.130834 347.193674 346.721377 345.718964 344.209652 341.919738 339.247596 336.291407 333.158955 329.963418 326.818975 323.836386 321.118705 318.757260 316.828049 315.740272 315.148670 315.039657 315.380416 316.120645 317.194898 318.525407 320.025305 321.602115 323.161400 324.463123 325.581506 326.449162 327.008467 327.213500 327.031595 326.444480 325.448953 324.057083 322.295921 320.077303 317.595067 314.925356 312.152288 309.364912 306.653985 304.108692 301.813406 299.844593 298.267974 297.305081 296.809020 296.786737 297.229310 298.112377 299.397025 301.031139 302.951141 305.084080 307.350001 309.756756 312.120057 314.347061 316.349438 318.046526 319.368228 320.257579 320.672879 320.589313 320.000002 318.431903 316.438951 314.107060 311.532634 308.817968 306.066446 303.377750 300.843255 298.541792 296.535947 295.604301 294.971205 294.577044 294.347454 294.197750 294.037789 293.777068 293.329846 292.620079 291.585976 289.478728 287.042699 284.335528 281.431744 278.419484 275.396667 272.466756 269.734280 267.300287 265.257900 264.159621 263.557471 263.460323 263.861153 264.737684 266.053518 267.759696 269.796628 272.096302 274.584717 276.959626 279.387675 281.809909 284.168707 286.408862 288.478566 290.330297 291.921592 293.215701 294.182124 294.930429 295.299011 295.267444 294.823997 293.966255 292.701542 291.047115 289.030103 286.687198 284.064079 281.038556 277.862161 274.615644 271.382018 268.243948 265.281136 262.567789 260.170236 258.144796 256.535946 255.633370 255.173605 255.137916 255.495473 256.205077 257.217163 258.476020 259.922135 261.494575 263.133331 264.538326 265.922176 267.259297 268.529520 269.717893 270.814259 271.812657 272.710576 273.508100 274.207010 274.975567 275.635825 276.176258 276.585744 276.853846 276.971148 276.929614 276.722954 276.346990 275.799997 275.075817 274.187010 273.141191 271.949046 270.624318 269.183705 267.646673 266.035167 264.373237 262.686565 260.859278 259.072749 257.365505 255.773590 254.329073 253.058647 251.982384 251.112696 250.453556 250.000000 250.075583 250.291731 250.589944 250.907915 251.182473 251.352575 251.362232 251.163255 250.717712 250.000000 248.525649 246.810660 244.911518 242.894600 240.832947 238.802769 236.879821 235.135799 233.634897 232.430664 232.118499 232.120360 232.399507 232.907593 233.587362 234.375682 235.206792 236.015618 236.741024 237.328876 237.228319 236.957199 236.537281 235.999482 235.381835 234.727174 234.080620 233.486991 232.988240 232.621033 232.860223 233.241573 233.738764 234.318938 234.944518 235.575242 236.170317 236.690601 237.100721 237.371044 237.149374 236.781193 236.289349 235.703384 235.058041 234.391557 233.743808 233.154380 232.660645 232.295914 232.327983 232.515876 232.852451 233.324102 233.911452 234.590249 235.332432 236.107311 236.882827 237.626839 238.205710 238.702893 239.101406 239.387464 239.550762 239.584636 239.486104 239.255799 238.897788 238.419300 237.855851 237.191819 236.439572 235.613219 234.728190 233.800802 232.847806 231.885944 230.931520 230.000000 229.176394 228.396906 227.666849 226.990365 226.370684 225.810388 225.311690 224.876693 224.507620 224.207008 223.910762 223.695215 223.569711 223.543251 223.624007 223.818804 224.132609 224.568048 225.124955 225.799995 226.663160 227.620490 228.651695 229.733681 230.841120 231.947069 233.023665 234.042838 234.977043 235.799995 236.522409 237.085079 237.466557 237.649410 237.620826 237.373094 236.903933 236.216661 235.320191 234.228851 232.900919 231.426561 229.838425 228.171481 226.461763 224.745048 223.055536 221.424568 219.879417 218.442207 217.225167 216.133010 215.160015 214.293986 213.516720 212.804667 212.129748 211.460314 210.762225 210.000000 209.149311 208.163901 207.010437 205.659005 204.084234 202.266287 200.191707 197.854088 195.254542 192.401955 189.293864 185.975401 182.479545 178.845581 175.118151 171.346148 167.581468 163.877663 160.288526 156.866653 153.674866 150.744809 148.116255 145.822766 143.890760 142.338757 141.176824 140.406246 140.019417 139.999985 140.429629 141.160835 142.145606 143.331203 144.661920 146.080929 147.532142 148.962033 150.321347 151.566666 152.562716 153.389295 154.035436 154.498632 154.784543 154.906431 154.884377 154.744297 154.516792 154.235886 153.993964 153.766145 153.584156 153.478451 153.477249 153.605657 153.884901 154.331682 154.957684 155.769226 156.812663 158.033931 159.419246 160.950290 162.604937 164.358095 166.182622 168.050295 169.932802 171.802719 173.624082 175.385425 177.068072 178.657302 180.142800 181.518976 182.785120 183.945401 185.008705 185.988319 186.846666 187.663043 188.465196 189.282191 190.143240 191.076516 192.107997 193.260385 194.552140 195.996666 197.794666 199.738421 201.807793 203.978549 206.223628 208.514487 210.822491 213.120268 215.383001 217.589577 219.502864 221.351124 223.146982 224.906776 226.649382 228.394919 230.163385 231.973290 233.840352 235.776291 238.017907 240.315776 242.646103 244.981117 247.290240 249.541394 251.702378 253.742291 255.632908 257.349998 258.748200 259.951983 260.965449 261.798733 262.467651 262.993157 263.400636 263.719057 263.980010 264.216663 264.528669 264.876884 265.287524 265.784928 266.390947 267.124376 268.000469 269.030534 270.221622 271.576311 273.082088 274.743581 276.550623 278.488698 280.539202 282.679794 284.884845 287.125979 289.372685 291.592994 293.816413 295.942912 297.935660 299.760119 301.385131 302.783925 303.935008 304.822912 305.438776 305.780732 305.775250 305.520172 305.041176 304.369494 303.540836 302.594179 301.570466 300.511246 299.457320 298.447412 297.573841 296.805291 296.162852 295.662122 295.312891 295.119011 295.078442 295.183477 295.421135 295.773710 296.259934 296.811329 297.397288 297.986257 298.546964 299.049648 299.467217 299.776327 299.958317 300.000000 299.807202 299.473639 299.012184 298.441252 297.784048 297.067646 296.321948 295.578545 294.869530 294.226289 293.710027 293.312225 293.053013 292.948111 293.008267 293.238848 293.639604 294.204611 294.922406 295.776293 296.836917 297.979394 299.167441 300.363374 301.529620 302.630226 303.632333 304.507539 305.233109 305.792989 305.977175 306.003343 305.895183 305.682228 305.398425 305.080552 304.766558 304.493864 304.297720 304.209651 304.478555 304.882933 305.418053 306.073955 306.836284 307.687278 308.606870 309.573863 310.567110 311.566668 312.352515 313.129980 313.904671 314.684399 315.478506 316.297100 317.150247 318.047151 318.995352 320.000002 321.167298 322.382259 323.631442 324.898633 326.165370 327.411575 328.616269 329.758360 330.817465 331.774748 332.633344 333.359258 333.941321 334.372959 334.652797 334.785124 334.780179 334.654251 334.429570 334.133991 333.666229 333.208865 332.813415 332.532234 332.416559 332.514534 332.869276 333.517059 334.485669 335.792992 337.566159 339.669235 342.075561 344.747656 347.638178 350.691191 353.843689 357.027353 360.170476 363.200005 365.991168 368.531914 370.761787 372.626489 374.079385 375.082826 375.609266 375.642144 375.176491 374.219269 372.758813 370.858755 368.563394 365.927053 363.012818 359.891062 356.637788 353.332822 350.057922 346.894825 343.927928 341.227746 338.864218 336.900047 335.389215 334.375703 333.892454 333.960591 334.588918 335.773712 337.449741 339.641692 342.313987 345.420116 348.903573 352.699048 356.733846 360.929522 365.203674 369.471893 373.785757 377.916086 381.773763 385.277319 388.355567 390.949989 393.016795 394.528578 395.475508 395.866013 395.367865 394.414511 393.096520 391.515899 389.782149 388.008112 386.305752 384.782016 383.534920 382.650002 382.606929 383.012751 383.866991 385.153016 386.839815 388.884272 391.233804 393.829260 396.607967 399.506805 402.090783 404.711643 407.351507 409.997883 412.643353 415.285006 417.923675 420.563008 423.208425 425.866028 428.739327 431.617035 434.485345 437.329596 440.134625 442.885156 445.566221 448.163589 450.664189 453.056488 455.089987 457.017918 458.854451 460.613530 462.307613 463.946500 465.536287 467.078504 468.569484 470.000000 471.680170 473.237630 474.621288 475.779737 476.664090 477.230823 477.444532 477.280455 476.726685 475.785950 474.005090 471.931158 469.653677 467.272843 464.895836 462.632847 460.592950 458.879960 457.588443 456.800003 456.895718 457.577971 458.847066 460.684584 463.054312 465.903735 469.166023 472.762441 476.605107 480.600006 484.511593 488.394635 492.166612 495.749690 499.072850 502.073804 504.700661 506.913293 508.684366 510.000015 510.701790 510.974170 510.856754 510.399823 509.662305 508.709537 507.610895 506.437374 505.259203 504.143570 503.322202 502.665752 502.207297 501.972172 501.978014 502.235065 502.746714 503.510246 504.517738 505.757080 507.002569 508.465705 510.145020 512.036629 514.134034 516.427953 518.906170 521.553439 524.351437 527.278809 530.369858 533.533614 536.736133 539.942226 543.116239 546.222881 549.228056 552.099693 554.808537 557.328888 559.510126 561.475398 563.223539 564.757450 566.083595 567.211429 568.152804 568.921357 569.531926 570.000000 570.420817 570.723448 570.916357 571.008104 571.007621 570.924521 570.769428 570.554296 570.292687 570.000000 569.485647 568.994516 568.564604 568.233323 568.036118 568.005097 568.167743 568.545757 569.154057 570.000000 571.202263 572.621884 574.231930 575.998829 577.883569 579.843074 581.831730 583.802987 585.710992 587.512207 588.995376 590.312471 591.449164 592.396621 593.151387 593.715126 594.094234 594.299329 594.344671 594.247498 594.034769 593.719075 593.321902 592.865092 592.370237 591.858130 591.348274 590.858482 590.404551 590.000031 589.604665 589.283084 589.045666 588.899876 588.850190 588.898103 589.042245 589.278576 589.600663 590.000031 590.419866 590.899713 591.431227 592.005256 592.612084 593.241680 593.883956 594.529020 595.167421 595.790375 596.246625 596.684319 597.109312 597.527178 597.942502 598.358241 598.775170 599.191447 599.602319 600.000000 600.540722 601.030266 601.439322 601.738644 601.900663 601.901098 601.720523 601.345798 600.771317 600.000000 598.692347 597.251610 595.737092 594.213206 592.746863 591.404739 590.250523 589.342242 588.729765 588.452576 588.708666 589.325395 590.288146 591.569255 593.128947 594.916698 596.872964 598.931224 601.020271 603.066681 605.015367 606.778504 608.289519 609.489545 610.329712 610.773140 610.796567 610.391558 609.565213 608.340363 606.284330 603.959461 601.469296 598.923248 596.431733 594.101225 592.029449 590.300869 588.982659 588.121307 588.360459 589.025401 590.038798 591.304700 592.712954 594.144154 595.474926 596.583358 597.354357 597.684723 596.739175 595.264690 593.278277 590.814208 587.921484 584.660818 581.101266 577.316656 573.381967 569.369812 565.932059 562.491919 559.050296 555.602064 552.137850 548.646073 545.115128 541.535599 537.902392 534.216675 529.906684 525.621690 521.436070 517.427703 513.674761 510.252374 507.229308 504.664781 502.605541 501.083328 500.486701 500.405527 500.786945 501.562999 502.653137 503.967136 505.408367 506.877278 508.274978 509.506805 510.230431 510.648221 510.717625 510.408904 509.705676 508.605083 507.117555 505.266211 503.085900 500.621933 497.886637 494.986154 491.990472 488.972273 486.004543 483.158203 480.499819 478.089475 475.978866 474.209656 472.833446 471.845095 471.248078 471.033099 471.178441 471.650704 472.405909 473.390927 474.545195 475.802673 477.116132 478.392206 479.559602 480.550589 481.303354 481.764194 481.889493 481.647398 481.019147 480.000000 478.347486 476.359300 474.094048 471.620688 469.015862 466.360994 463.739246 461.232458 458.918143 456.866669 455.297081 454.085554 453.254703 452.814101 452.760295 453.077258 453.737244 454.702009 455.924367 457.350006 458.936367 460.604464 462.289624 463.928706 465.462421 466.837517 468.008749 468.940570 469.608486 470.000000 469.724098 469.216627 468.533816 467.738906 466.898802 466.080605 465.348156 464.758736 464.360047 464.187607 464.810259 465.639684 466.621007 467.688860 468.770825 469.791186 470.674837 471.351188 471.757908 471.844345 470.897228 469.632817 468.104730 466.378376 464.527593 462.630947 460.767865 459.014735 457.441160 456.106491 455.638010 455.434809 455.463415 455.678453 456.025314 456.443198 456.868390 457.237653 457.491574 457.577744 456.908797 456.046489 455.018161 453.860382 452.616845 451.335976 450.068361 448.864095 447.770180 446.828049 446.462382 446.272308 446.239624 446.338566 446.537325 446.799806 447.087561 447.361802 447.585432 447.724976 447.387656 446.948583 446.423783 445.834101 445.203841 444.559267 443.927037 443.332625 442.798808 442.344284 442.211658 442.159033 442.168524 442.217683 442.280643 442.329429 442.335383 442.270647 442.109649 441.