New Loadshape.DailyA
New Loadshape.DailyB
New Loadshape.DailyC

New Loadshape.DutyA
New Loadshape.DutyB
New Loadshape.DutyC

New Loadshape.YearlyA
New Loadshape.YearlyB
New Loadshape.YearlyC


