New Line.PH997__2571841 Bus1=T5240B12_1_reg.1.2.3 Bus2=1598884.1.2.3 Switch=y
