New Line.E3R76__2586691 Bus1=1586838 Bus2=26403393 Switch=T
New Fuse.E3R76__2586691 MonitoredObj=Line.E3R76__2586691 MonitoredTerm=1 SwitchedObj=Line.E3R76__2586691 SwitchedTerm=1 RatedCurrent= 30  enable=F
New Line.E3R61__2569520 Bus1=1586780 Bus2=1586782 Switch=T
New Fuse.E3R61__2569520 MonitoredObj=Line.E3R61__2569520 MonitoredTerm=1 SwitchedObj=Line.E3R61__2569520 SwitchedTerm=1 RatedCurrent= 1  enable=F
New Line.EW624__2571678 Bus1=25116769 Bus2=1599302 Switch=T
New Fuse.EW624__2571678 MonitoredObj=Line.EW624__2571678 MonitoredTerm=1 SwitchedObj=Line.EW624__2571678 SwitchedTerm=1 RatedCurrent= 65  enable=F
New Line.E0V34__103666496 Bus1=1715940 Bus2=103197436 Switch=T
New Fuse.E0V34__103666496 MonitoredObj=Line.E0V34__103666496 MonitoredTerm=1 SwitchedObj=Line.E0V34__103666496 SwitchedTerm=1 RatedCurrent= 40  enable=F
New Line.E0Z18__2586623 Bus1=1709283 Bus2=26400157 Switch=T
New Fuse.E0Z18__2586623 MonitoredObj=Line.E0Z18__2586623 MonitoredTerm=1 SwitchedObj=Line.E0Z18__2586623 SwitchedTerm=1 RatedCurrent= 25  enable=F
New Line.E2N28__2583983 Bus1=1715676 Bus2=26115130 Switch=T
New Fuse.E2N28__2583983 MonitoredObj=Line.E2N28__2583983 MonitoredTerm=1 SwitchedObj=Line.E2N28__2583983 SwitchedTerm=1 RatedCurrent= 25  enable=F
New Line.E1506__2569486 Bus1=1586474 Bus2=1586475 Switch=T
New Fuse.E1506__2569486 MonitoredObj=Line.E1506__2569486 MonitoredTerm=1 SwitchedObj=Line.E1506__2569486 SwitchedTerm=1 RatedCurrent= 65  enable=F
New Line.E2N28__2583984 Bus1=1715676 Bus2=26115131 Switch=T
New Fuse.E2N28__2583984 MonitoredObj=Line.E2N28__2583984 MonitoredTerm=1 SwitchedObj=Line.E2N28__2583984 SwitchedTerm=1 RatedCurrent= 25  enable=F
New Line.E2N58__2563778 Bus1=1713372 Bus2=1713373 Switch=T
New Fuse.E2N58__2563778 MonitoredObj=Line.E2N58__2563778 MonitoredTerm=1 SwitchedObj=Line.E2N58__2563778 SwitchedTerm=1 RatedCurrent= 1  enable=F
New Line.E3W08__2563765 Bus1=1714675 Bus2=1714676 Switch=T
New Fuse.E3W08__2563765 MonitoredObj=Line.E3W08__2563765 MonitoredTerm=1 SwitchedObj=Line.E3W08__2563765 SwitchedTerm=1 RatedCurrent= 1  enable=F
New Line.EZT60__2491099 Bus1=1708673 Bus2=26401855 Switch=T
New Fuse.EZT60__2491099 MonitoredObj=Line.EZT60__2491099 MonitoredTerm=1 SwitchedObj=Line.EZT60__2491099 SwitchedTerm=1 RatedCurrent= 25  enable=F
New Line.18GJ26__105595325 Bus1=103635653 Bus2=103635654 Switch=T
New Fuse.18GJ26__105595325 MonitoredObj=Line.18GJ26__105595325 MonitoredTerm=1 SwitchedObj=Line.18GJ26__105595325 SwitchedTerm=1 RatedCurrent= 25  enable=F
New Line.E3Y54__2563855 Bus1=1713250 Bus2=1713251 Switch=T
New Fuse.E3Y54__2563855 MonitoredObj=Line.E3Y54__2563855 MonitoredTerm=1 SwitchedObj=Line.E3Y54__2563855 SwitchedTerm=1 RatedCurrent= 1  enable=F
New Line.E0X93__2586620 Bus1=1708814 Bus2=26400154 Switch=T
New Fuse.E0X93__2586620 MonitoredObj=Line.E0X93__2586620 MonitoredTerm=1 SwitchedObj=Line.E0X93__2586620 SwitchedTerm=1 RatedCurrent= 25  enable=F
New Line.E1618__2586664 Bus1=1585999 Bus2=26402853 Switch=T
New Fuse.E1618__2586664 MonitoredObj=Line.E1618__2586664 MonitoredTerm=1 SwitchedObj=Line.E1618__2586664 SwitchedTerm=1 RatedCurrent= 25  enable=F
New Line.E2N21__2583982 Bus1=1715703 Bus2=26115129 Switch=T
New Fuse.E2N21__2583982 MonitoredObj=Line.E2N21__2583982 MonitoredTerm=1 SwitchedObj=Line.E2N21__2583982 SwitchedTerm=1 RatedCurrent= 25  enable=F
New Line.E3Y63__2586680 Bus1=1587217 Bus2=26403382 Switch=T
New Fuse.E3Y63__2586680 MonitoredObj=Line.E3Y63__2586680 MonitoredTerm=1 SwitchedObj=Line.E3Y63__2586680 SwitchedTerm=1 RatedCurrent= 30  enable=F
New Line.E1618__2586663 Bus1=1585999 Bus2=26402852 Switch=T
New Fuse.E1618__2586663 MonitoredObj=Line.E1618__2586663 MonitoredTerm=1 SwitchedObj=Line.E1618__2586663 SwitchedTerm=1 RatedCurrent= 25  enable=F
New Line.EZF52__103037831 Bus1=103015354 Bus2=1709356 Switch=T
New Fuse.EZF52__103037831 MonitoredObj=Line.EZF52__103037831 MonitoredTerm=1 SwitchedObj=Line.EZF52__103037831 SwitchedTerm=1 RatedCurrent= 50  enable=F
New Line.EZT85__2491105 Bus1=1586556 Bus2=26401861 Switch=T
New Fuse.EZT85__2491105 MonitoredObj=Line.EZT85__2491105 MonitoredTerm=1 SwitchedObj=Line.EZT85__2491105 SwitchedTerm=1 RatedCurrent= 25  enable=F
New Line.EZT85__2491104 Bus1=1586556 Bus2=26401860 Switch=T
New Fuse.EZT85__2491104 MonitoredObj=Line.EZT85__2491104 MonitoredTerm=1 SwitchedObj=Line.EZT85__2491104 SwitchedTerm=1 RatedCurrent= 25  enable=F
New Line.E0Z15__2586622 Bus1=1709169 Bus2=26400156 Switch=T
New Fuse.E0Z15__2586622 MonitoredObj=Line.E0Z15__2586622 MonitoredTerm=1 SwitchedObj=Line.E0Z15__2586622 SwitchedTerm=1 RatedCurrent= 25  enable=F
New Line.E1660__2569471 Bus1=1586080 Bus2=1586081 Switch=T
New Fuse.E1660__2569471 MonitoredObj=Line.E1660__2569471 MonitoredTerm=1 SwitchedObj=Line.E1660__2569471 SwitchedTerm=1 RatedCurrent= 25  enable=F
New Line.EXF96__104872255 Bus1=1729302 Bus2=103612991 Switch=T
New Fuse.EXF96__104872255 MonitoredObj=Line.EXF96__104872255 MonitoredTerm=1 SwitchedObj=Line.EXF96__104872255 SwitchedTerm=1 RatedCurrent= 20  enable=F
New Line.E0Z60__2585962 Bus1=26325337 Bus2=26325341 Switch=T
New Fuse.E0Z60__2585962 MonitoredObj=Line.E0Z60__2585962 MonitoredTerm=1 SwitchedObj=Line.E0Z60__2585962 SwitchedTerm=1 RatedCurrent= 20  enable=F
New Line.E1614__2586661 Bus1=1586031 Bus2=26402850 Switch=T
New Fuse.E1614__2586661 MonitoredObj=Line.E1614__2586661 MonitoredTerm=1 SwitchedObj=Line.E1614__2586661 SwitchedTerm=1 RatedCurrent= 25  enable=F
New Line.E1614__2586662 Bus1=1586031 Bus2=26402851 Switch=T
New Fuse.E1614__2586662 MonitoredObj=Line.E1614__2586662 MonitoredTerm=1 SwitchedObj=Line.E1614__2586662 SwitchedTerm=1 RatedCurrent= 25  enable=F
New Line.E2N85__2569514 Bus1=1587234 Bus2=1587235 Switch=T
New Fuse.E2N85__2569514 MonitoredObj=Line.E2N85__2569514 MonitoredTerm=1 SwitchedObj=Line.E2N85__2569514 SwitchedTerm=1 RatedCurrent= 1  enable=F
New Line.EZZ86__2474913 Bus1=1586316 Bus2=1586318 Switch=T
New Fuse.EZZ86__2474913 MonitoredObj=Line.EZZ86__2474913 MonitoredTerm=1 SwitchedObj=Line.EZZ86__2474913 SwitchedTerm=1 RatedCurrent= 1  enable=F
New Line.E0P45__2563653 Bus1=1708877 Bus2=103016334 Switch=T
New Fuse.E0P45__2563653 MonitoredObj=Line.E0P45__2563653 MonitoredTerm=1 SwitchedObj=Line.E0P45__2563653 SwitchedTerm=1 RatedCurrent= 65  enable=F
New Line.EZZ86__2474912 Bus1=1586316 Bus2=1586317 Switch=T
New Fuse.EZZ86__2474912 MonitoredObj=Line.EZZ86__2474912 MonitoredTerm=1 SwitchedObj=Line.EZZ86__2474912 SwitchedTerm=1 RatedCurrent= 1  enable=F
New Line.E3R40__2586693 Bus1=1586791 Bus2=26403404 Switch=T
New Fuse.E3R40__2586693 MonitoredObj=Line.E3R40__2586693 MonitoredTerm=1 SwitchedObj=Line.E3R40__2586693 SwitchedTerm=1 RatedCurrent= 30  enable=F
New Line.E0Z39__2593676 Bus1=26915027 Bus2=26915029 Switch=T
New Fuse.E0Z39__2593676 MonitoredObj=Line.E0Z39__2593676 MonitoredTerm=1 SwitchedObj=Line.E0Z39__2593676 SwitchedTerm=1 RatedCurrent= 20  enable=F
New Line.E1688__103735593 Bus1=1585943 Bus2=103218189 Switch=T
New Fuse.E1688__103735593 MonitoredObj=Line.E1688__103735593 MonitoredTerm=1 SwitchedObj=Line.E1688__103735593 SwitchedTerm=1 RatedCurrent= 20  enable=F
New Line.E1168__2590041 Bus1=1586509 Bus2=26725379 Switch=T
New Fuse.E1168__2590041 MonitoredObj=Line.E1168__2590041 MonitoredTerm=1 SwitchedObj=Line.E1168__2590041 SwitchedTerm=1 RatedCurrent= 20  enable=F
New Line.E1549__2586651 Bus1=1586185 Bus2=26402840 Switch=T
New Fuse.E1549__2586651 MonitoredObj=Line.E1549__2586651 MonitoredTerm=1 SwitchedObj=Line.E1549__2586651 SwitchedTerm=1 RatedCurrent= 25  enable=F
New Line.E1549__2586650 Bus1=1586185 Bus2=26402839 Switch=T
New Fuse.E1549__2586650 MonitoredObj=Line.E1549__2586650 MonitoredTerm=1 SwitchedObj=Line.E1549__2586650 SwitchedTerm=1 RatedCurrent= 25  enable=F
New Line.EXH84__104781032 Bus1=1599255 Bus2=103570117 Switch=T
New Fuse.EXH84__104781032 MonitoredObj=Line.EXH84__104781032 MonitoredTerm=1 SwitchedObj=Line.EXH84__104781032 SwitchedTerm=1 RatedCurrent= 65  enable=F
New Line.EXS30__104180229 Bus1=1709874 Bus2=103344435 Switch=T
New Fuse.EXS30__104180229 MonitoredObj=Line.EXS30__104180229 MonitoredTerm=1 SwitchedObj=Line.EXS30__104180229 SwitchedTerm=1 RatedCurrent= 1  enable=F
New Line.E1192__2569485 Bus1=1586601 Bus2=1586602 Switch=T
New Fuse.E1192__2569485 MonitoredObj=Line.E1192__2569485 MonitoredTerm=1 SwitchedObj=Line.E1192__2569485 SwitchedTerm=1 RatedCurrent= 1  enable=F
New Line.E1700__2586674 Bus1=1585829 Bus2=26402863 Switch=T
New Fuse.E1700__2586674 MonitoredObj=Line.E1700__2586674 MonitoredTerm=1 SwitchedObj=Line.E1700__2586674 SwitchedTerm=1 RatedCurrent= 25  enable=F
New Line.E2N66__2582441 Bus1=1713382 Bus2=25984423 Switch=T
New Fuse.E2N66__2582441 MonitoredObj=Line.E2N66__2582441 MonitoredTerm=1 SwitchedObj=Line.E2N66__2582441 SwitchedTerm=1 RatedCurrent= 20  enable=F
New Line.E0V34__103666497 Bus1=1715940 Bus2=103197438 Switch=T
New Fuse.E0V34__103666497 MonitoredObj=Line.E0V34__103666497 MonitoredTerm=1 SwitchedObj=Line.E0V34__103666497 SwitchedTerm=1 RatedCurrent= 40  enable=F
New Line.E2M93__2569517 Bus1=1586996 Bus2=1586997 Switch=T
New Fuse.E2M93__2569517 MonitoredObj=Line.E2M93__2569517 MonitoredTerm=1 SwitchedObj=Line.E2M93__2569517 SwitchedTerm=1 RatedCurrent= 1  enable=F
New Line.E1515__2569487 Bus1=1586477 Bus2=1586478 Switch=T
New Fuse.E1515__2569487 MonitoredObj=Line.E1515__2569487 MonitoredTerm=1 SwitchedObj=Line.E1515__2569487 SwitchedTerm=1 RatedCurrent= 1  enable=F
New Line.E1535__2569490 Bus1=25173282 Bus2=1586325 Switch=T
New Fuse.E1535__2569490 MonitoredObj=Line.E1535__2569490 MonitoredTerm=1 SwitchedObj=Line.E1535__2569490 SwitchedTerm=1 RatedCurrent= 1  enable=F
New Line.E2M96__2569516 Bus1=1586948 Bus2=1586949 Switch=T
New Fuse.E2M96__2569516 MonitoredObj=Line.E2M96__2569516 MonitoredTerm=1 SwitchedObj=Line.E2M96__2569516 SwitchedTerm=1 RatedCurrent= 1  enable=F
New Line.E1515__2569489 Bus1=1586477 Bus2=1586480 Switch=T
New Fuse.E1515__2569489 MonitoredObj=Line.E1515__2569489 MonitoredTerm=1 SwitchedObj=Line.E1515__2569489 SwitchedTerm=1 RatedCurrent= 1  enable=F
New Line.E1515__2569488 Bus1=1586477 Bus2=25138752 Switch=T
New Fuse.E1515__2569488 MonitoredObj=Line.E1515__2569488 MonitoredTerm=1 SwitchedObj=Line.E1515__2569488 SwitchedTerm=1 RatedCurrent= 1  enable=F
New Line.E2M14__2569513 Bus1=1587101 Bus2=1587102 Switch=T
New Fuse.E2M14__2569513 MonitoredObj=Line.E2M14__2569513 MonitoredTerm=1 SwitchedObj=Line.E2M14__2569513 SwitchedTerm=1 RatedCurrent= 1  enable=F
New Line.E2J11__2586677 Bus1=1586701 Bus2=26403378 Switch=T
New Fuse.E2J11__2586677 MonitoredObj=Line.E2J11__2586677 MonitoredTerm=1 SwitchedObj=Line.E2J11__2586677 SwitchedTerm=1 RatedCurrent= 30  enable=F
New Line.110B46__2583213 Bus1=26023405 Bus2=26045884 Switch=T
New Fuse.110B46__2583213 MonitoredObj=Line.110B46__2583213 MonitoredTerm=1 SwitchedObj=Line.110B46__2583213 SwitchedTerm=1 RatedCurrent= 25  enable=F
New Line.E0Z83__2586635 Bus1=1708990 Bus2=26400169 Switch=T
New Fuse.E0Z83__2586635 MonitoredObj=Line.E0Z83__2586635 MonitoredTerm=1 SwitchedObj=Line.E0Z83__2586635 SwitchedTerm=1 RatedCurrent= 25  enable=F
New Line.E0X02__2586557 Bus1=1708980 Bus2=26400488 Switch=T
New Fuse.E0X02__2586557 MonitoredObj=Line.E0X02__2586557 MonitoredTerm=1 SwitchedObj=Line.E0X02__2586557 SwitchedTerm=1 RatedCurrent= 25  enable=F
New Line.E0X59__2563694 Bus1=1709362 Bus2=1709363 Switch=T
New Fuse.E0X59__2563694 MonitoredObj=Line.E0X59__2563694 MonitoredTerm=1 SwitchedObj=Line.E0X59__2563694 SwitchedTerm=1 RatedCurrent= 1  enable=F
New Line.EXG64__2563850 Bus1=1715976 Bus2=1715977 Switch=T
New Fuse.EXG64__2563850 MonitoredObj=Line.EXG64__2563850 MonitoredTerm=1 SwitchedObj=Line.EXG64__2563850 SwitchedTerm=1 RatedCurrent= 1  enable=F
New Line.E2N92__2569515 Bus1=1587236 Bus2=103015466 Switch=T
New Fuse.E2N92__2569515 MonitoredObj=Line.E2N92__2569515 MonitoredTerm=1 SwitchedObj=Line.E2N92__2569515 SwitchedTerm=1 RatedCurrent= 1  enable=F
New Line.E0P84__2586593 Bus1=1713142 Bus2=26401837 Switch=T
New Fuse.E0P84__2586593 MonitoredObj=Line.E0P84__2586593 MonitoredTerm=1 SwitchedObj=Line.E0P84__2586593 SwitchedTerm=1 RatedCurrent= 25  enable=F
New Line.E0X30__2563708 Bus1=1710406 Bus2=103016099 Switch=T
New Fuse.E0X30__2563708 MonitoredObj=Line.E0X30__2563708 MonitoredTerm=1 SwitchedObj=Line.E0X30__2563708 SwitchedTerm=1 RatedCurrent= 1  enable=F
New Line.EXF19__2567509 Bus1=1729150 Bus2=1729151 Switch=T
New Fuse.EXF19__2567509 MonitoredObj=Line.EXF19__2567509 MonitoredTerm=1 SwitchedObj=Line.EXF19__2567509 SwitchedTerm=1 RatedCurrent= 1  enable=F
New Line.E0Z35__2563663 Bus1=1710984 Bus2=1710985 Switch=T
New Fuse.E0Z35__2563663 MonitoredObj=Line.E0Z35__2563663 MonitoredTerm=1 SwitchedObj=Line.E0Z35__2563663 SwitchedTerm=1 RatedCurrent= 1  enable=F
New Line.E3X90__2563847 Bus1=1713943 Bus2=1713944 Switch=T
New Fuse.E3X90__2563847 MonitoredObj=Line.E3X90__2563847 MonitoredTerm=1 SwitchedObj=Line.E3X90__2563847 SwitchedTerm=1 RatedCurrent= 1  enable=F
New Line.E2K07__2563842 Bus1=1713826 Bus2=1713827 Switch=T
New Fuse.E2K07__2563842 MonitoredObj=Line.E2K07__2563842 MonitoredTerm=1 SwitchedObj=Line.E2K07__2563842 SwitchedTerm=1 RatedCurrent= 65  enable=F
New Line.E0P73__2491080 Bus1=1709389 Bus2=26401835 Switch=T
New Fuse.E0P73__2491080 MonitoredObj=Line.E0P73__2491080 MonitoredTerm=1 SwitchedObj=Line.E0P73__2491080 SwitchedTerm=1 RatedCurrent= 25  enable=F
New Line.E1718__2586675 Bus1=1585932 Bus2=26402864 Switch=T
New Fuse.E1718__2586675 MonitoredObj=Line.E1718__2586675 MonitoredTerm=1 SwitchedObj=Line.E1718__2586675 SwitchedTerm=1 RatedCurrent= 25  enable=F
New Line.EXS06__2575437 Bus1=1709799 Bus2=25366318 Switch=T
New Fuse.EXS06__2575437 MonitoredObj=Line.EXS06__2575437 MonitoredTerm=1 SwitchedObj=Line.EXS06__2575437 SwitchedTerm=1 RatedCurrent= 1  enable=F
New Line.E0P76__2491081 Bus1=1709467 Bus2=26401836 Switch=T
New Fuse.E0P76__2491081 MonitoredObj=Line.E0P76__2491081 MonitoredTerm=1 SwitchedObj=Line.E0P76__2491081 SwitchedTerm=1 RatedCurrent= 1  enable=F
New Line.E3R61__2569519 Bus1=1586780 Bus2=1586781 Switch=T
New Fuse.E3R61__2569519 MonitoredObj=Line.E3R61__2569519 MonitoredTerm=1 SwitchedObj=Line.E3R61__2569519 SwitchedTerm=1 RatedCurrent= 1  enable=F
New Line.EW243__2586605 Bus1=1710019 Bus2=26400129 Switch=T
New Fuse.EW243__2586605 MonitoredObj=Line.EW243__2586605 MonitoredTerm=1 SwitchedObj=Line.EW243__2586605 SwitchedTerm=1 RatedCurrent= 65  enable=F
New Line.EW254__2578969 Bus1=1709937 Bus2=25794277 Switch=T
New Fuse.EW254__2578969 MonitoredObj=Line.EW254__2578969 MonitoredTerm=1 SwitchedObj=Line.EW254__2578969 SwitchedTerm=1 RatedCurrent= 1  enable=F
New Line.EW666__2586615 Bus1=1599191 Bus2=26400145 Switch=T
New Fuse.EW666__2586615 MonitoredObj=Line.EW666__2586615 MonitoredTerm=1 SwitchedObj=Line.EW666__2586615 SwitchedTerm=1 RatedCurrent= 30  enable=F
New Line.13LG41__2589947 Bus1=26682115 Bus2=26682116 Switch=T
New Fuse.13LG41__2589947 MonitoredObj=Line.13LG41__2589947 MonitoredTerm=1 SwitchedObj=Line.13LG41__2589947 SwitchedTerm=1 RatedCurrent= 20  enable=F
New Line.E0X93__103734058 Bus1=1708814 Bus2=103218078 Switch=T
New Fuse.E0X93__103734058 MonitoredObj=Line.E0X93__103734058 MonitoredTerm=1 SwitchedObj=Line.E0X93__103734058 SwitchedTerm=1 RatedCurrent= 20  enable=F
New Line.EZB55__2586561 Bus1=1709532 Bus2=26400492 Switch=T
New Fuse.EZB55__2586561 MonitoredObj=Line.EZB55__2586561 MonitoredTerm=1 SwitchedObj=Line.EZB55__2586561 SwitchedTerm=1 RatedCurrent= 25  enable=F
New Line.E1555__2586653 Bus1=1586167 Bus2=26402842 Switch=T
New Fuse.E1555__2586653 MonitoredObj=Line.E1555__2586653 MonitoredTerm=1 SwitchedObj=Line.E1555__2586653 SwitchedTerm=1 RatedCurrent= 25  enable=F
New Line.E1555__2586652 Bus1=1586167 Bus2=26402841 Switch=T
New Fuse.E1555__2586652 MonitoredObj=Line.E1555__2586652 MonitoredTerm=1 SwitchedObj=Line.E1555__2586652 SwitchedTerm=1 RatedCurrent= 25  enable=F
New Line.E0Z32__2586625 Bus1=1709594 Bus2=26400159 Switch=T
New Fuse.E0Z32__2586625 MonitoredObj=Line.E0Z32__2586625 MonitoredTerm=1 SwitchedObj=Line.E0Z32__2586625 SwitchedTerm=1 RatedCurrent= 25  enable=F
New Line.E0Z90__2586636 Bus1=1708944 Bus2=26400170 Switch=T
New Fuse.E0Z90__2586636 MonitoredObj=Line.E0Z90__2586636 MonitoredTerm=1 SwitchedObj=Line.E0Z90__2586636 SwitchedTerm=1 RatedCurrent= 25  enable=F
New Line.E1164__2583756 Bus1=1586510 Bus2=26096018 Switch=T
New Fuse.E1164__2583756 MonitoredObj=Line.E1164__2583756 MonitoredTerm=1 SwitchedObj=Line.E1164__2583756 SwitchedTerm=1 RatedCurrent= 20  enable=F
New Line.E3Y63__2586679 Bus1=1587217 Bus2=26403381 Switch=T
New Fuse.E3Y63__2586679 MonitoredObj=Line.E3Y63__2586679 MonitoredTerm=1 SwitchedObj=Line.E3Y63__2586679 SwitchedTerm=1 RatedCurrent= 30  enable=F
New Line.E0Z37__2586626 Bus1=1709593 Bus2=26400160 Switch=T
New Fuse.E0Z37__2586626 MonitoredObj=Line.E0Z37__2586626 MonitoredTerm=1 SwitchedObj=Line.E0Z37__2586626 SwitchedTerm=1 RatedCurrent= 25  enable=F
New Line.E3W20__2563766 Bus1=1715555 Bus2=1715556 Switch=T
New Fuse.E3W20__2563766 MonitoredObj=Line.E3W20__2563766 MonitoredTerm=1 SwitchedObj=Line.E3W20__2563766 SwitchedTerm=1 RatedCurrent= 65  enable=F
New Line.E3Y04__2586687 Bus1=1713327 Bus2=26403389 Switch=T
New Fuse.E3Y04__2586687 MonitoredObj=Line.E3Y04__2586687 MonitoredTerm=1 SwitchedObj=Line.E3Y04__2586687 SwitchedTerm=1 RatedCurrent= 30  enable=F
New Line.E3Y04__2586686 Bus1=1713327 Bus2=26403388 Switch=T
New Fuse.E3Y04__2586686 MonitoredObj=Line.E3Y04__2586686 MonitoredTerm=1 SwitchedObj=Line.E3Y04__2586686 SwitchedTerm=1 RatedCurrent= 30  enable=F
New Line.E1005__2491082 Bus1=1713206 Bus2=26401839 Switch=T
New Fuse.E1005__2491082 MonitoredObj=Line.E1005__2491082 MonitoredTerm=1 SwitchedObj=Line.E1005__2491082 SwitchedTerm=1 RatedCurrent= 25  enable=F
New Line.E1081__2491088 Bus1=1586551 Bus2=26401845 Switch=T
New Fuse.E1081__2491088 MonitoredObj=Line.E1081__2491088 MonitoredTerm=1 SwitchedObj=Line.E1081__2491088 SwitchedTerm=1 RatedCurrent= 25  enable=F
New Line.E0X13__2586558 Bus1=1708901 Bus2=26400489 Switch=T
New Fuse.E0X13__2586558 MonitoredObj=Line.E0X13__2586558 MonitoredTerm=1 SwitchedObj=Line.E0X13__2586558 SwitchedTerm=1 RatedCurrent= 25  enable=F
New Line.12H033__2588104 Bus1=26437942 Bus2=26530905 Switch=T
New Fuse.12H033__2588104 MonitoredObj=Line.12H033__2588104 MonitoredTerm=1 SwitchedObj=Line.12H033__2588104 SwitchedTerm=1 RatedCurrent= 20  enable=F
New Line.E1692__2586673 Bus1=1585889 Bus2=26402862 Switch=T
New Fuse.E1692__2586673 MonitoredObj=Line.E1692__2586673 MonitoredTerm=1 SwitchedObj=Line.E1692__2586673 SwitchedTerm=1 RatedCurrent= 25  enable=F
New Line.E1690__2586672 Bus1=1585891 Bus2=26402861 Switch=T
New Fuse.E1690__2586672 MonitoredObj=Line.E1690__2586672 MonitoredTerm=1 SwitchedObj=Line.E1690__2586672 SwitchedTerm=1 RatedCurrent= 25  enable=F
New Line.8HK82__2586072 Bus1=25594278 Bus2=26341932 Switch=T
New Fuse.8HK82__2586072 MonitoredObj=Line.8HK82__2586072 MonitoredTerm=1 SwitchedObj=Line.8HK82__2586072 SwitchedTerm=1 RatedCurrent= 1  enable=F
New Line.E1089__2491089 Bus1=1586656 Bus2=26401846 Switch=T
New Fuse.E1089__2491089 MonitoredObj=Line.E1089__2491089 MonitoredTerm=1 SwitchedObj=Line.E1089__2491089 SwitchedTerm=1 RatedCurrent= 25  enable=F
New Line.E2M52__2586703 Bus1=1587175 Bus2=26403474 Switch=T
New Fuse.E2M52__2586703 MonitoredObj=Line.E2M52__2586703 MonitoredTerm=1 SwitchedObj=Line.E2M52__2586703 SwitchedTerm=1 RatedCurrent= 1  enable=F
New Line.E3R21__2586696 Bus1=1586830 Bus2=26403407 Switch=T
New Fuse.E3R21__2586696 MonitoredObj=Line.E3R21__2586696 MonitoredTerm=1 SwitchedObj=Line.E3R21__2586696 SwitchedTerm=1 RatedCurrent= 30  enable=F
New Line.E0X67__103140002 Bus1=1709150 Bus2=103060499 Switch=T
New Fuse.E0X67__103140002 MonitoredObj=Line.E0X67__103140002 MonitoredTerm=1 SwitchedObj=Line.E0X67__103140002 SwitchedTerm=1 RatedCurrent= 20  enable=F
New Line.18GJ22__105595300 Bus1=103635645 Bus2=103635646 Switch=T
New Fuse.18GJ22__105595300 MonitoredObj=Line.18GJ22__105595300 MonitoredTerm=1 SwitchedObj=Line.18GJ22__105595300 SwitchedTerm=1 RatedCurrent= 25  enable=F
New Line.127G33__104180232 Bus1=103344436 Bus2=103344437 Switch=T
New Fuse.127G33__104180232 MonitoredObj=Line.127G33__104180232 MonitoredTerm=1 SwitchedObj=Line.127G33__104180232 SwitchedTerm=1 RatedCurrent= 50  enable=F
New Line.E3R24__2586695 Bus1=1586822 Bus2=26403406 Switch=T
New Fuse.E3R24__2586695 MonitoredObj=Line.E3R24__2586695 MonitoredTerm=1 SwitchedObj=Line.E3R24__2586695 SwitchedTerm=1 RatedCurrent= 30  enable=F
New Line.E3R27__2586694 Bus1=1586814 Bus2=26403405 Switch=T
New Fuse.E3R27__2586694 MonitoredObj=Line.E3R27__2586694 MonitoredTerm=1 SwitchedObj=Line.E3R27__2586694 SwitchedTerm=1 RatedCurrent= 30  enable=F
New Line.EW614__2571677 Bus1=1599309 Bus2=1599310 Switch=T
New Fuse.EW614__2571677 MonitoredObj=Line.EW614__2571677 MonitoredTerm=1 SwitchedObj=Line.EW614__2571677 SwitchedTerm=1 RatedCurrent= 65  enable=F
New Line.EW678__2586616 Bus1=1599183 Bus2=26400146 Switch=T
New Fuse.EW678__2586616 MonitoredObj=Line.EW678__2586616 MonitoredTerm=1 SwitchedObj=Line.EW678__2586616 SwitchedTerm=1 RatedCurrent= 30  enable=F
New Line.EZT41__104183850 Bus1=103345725 Bus2=103345726 Switch=T
New Fuse.EZT41__104183850 MonitoredObj=Line.EZT41__104183850 MonitoredTerm=1 SwitchedObj=Line.EZT41__104183850 SwitchedTerm=1 RatedCurrent= 1  enable=F
New Line.E0P66__2491079 Bus1=1709284 Bus2=26401834 Switch=T
New Fuse.E0P66__2491079 MonitoredObj=Line.E0P66__2491079 MonitoredTerm=1 SwitchedObj=Line.E0P66__2491079 SwitchedTerm=1 RatedCurrent= 25  enable=F
New Line.EXS96__103564130 Bus1=1709614 Bus2=103167333 Switch=T
New Fuse.EXS96__103564130 MonitoredObj=Line.EXS96__103564130 MonitoredTerm=1 SwitchedObj=Line.EXS96__103564130 SwitchedTerm=1 RatedCurrent= 1  enable=F
New Line.181931__104627926 Bus1=103510256 Bus2=103557767 Switch=T
New Fuse.181931__104627926 MonitoredObj=Line.181931__104627926 MonitoredTerm=1 SwitchedObj=Line.181931__104627926 SwitchedTerm=1 RatedCurrent= 65  enable=F
New Line.E1177__2569505 Bus1=1586194 Bus2=1586195 Switch=T
New Fuse.E1177__2569505 MonitoredObj=Line.E1177__2569505 MonitoredTerm=1 SwitchedObj=Line.E1177__2569505 SwitchedTerm=1 RatedCurrent= 1  enable=F
New Line.E1674__2576952 Bus1=25487266 Bus2=25550125 Switch=T
New Fuse.E1674__2576952 MonitoredObj=Line.E1674__2576952 MonitoredTerm=1 SwitchedObj=Line.E1674__2576952 SwitchedTerm=1 RatedCurrent= 1  enable=F
New Line.12YN32__2589556 Bus1=26540858 Bus2=26646181 Switch=T
New Fuse.12YN32__2589556 MonitoredObj=Line.12YN32__2589556 MonitoredTerm=1 SwitchedObj=Line.12YN32__2589556 SwitchedTerm=1 RatedCurrent= 1  enable=F
New Line.EZT51__2491097 Bus1=1708676 Bus2=26401853 Switch=T
New Fuse.EZT51__2491097 MonitoredObj=Line.EZT51__2491097 MonitoredTerm=1 SwitchedObj=Line.EZT51__2491097 SwitchedTerm=1 RatedCurrent= 25  enable=F
New Line.E1597__106095012 Bus1=1586182 Bus2=103655596 Switch=T
New Fuse.E1597__106095012 MonitoredObj=Line.E1597__106095012 MonitoredTerm=1 SwitchedObj=Line.E1597__106095012 SwitchedTerm=1 RatedCurrent= 20  enable=F
New Line.EXG22__103444867 Bus1=1715806 Bus2=103135192 Switch=T
New Fuse.EXG22__103444867 MonitoredObj=Line.EXG22__103444867 MonitoredTerm=1 SwitchedObj=Line.EXG22__103444867 SwitchedTerm=1 RatedCurrent= 50  enable=F
New Line.EZT51__2491096 Bus1=1708676 Bus2=26401852 Switch=T
New Fuse.EZT51__2491096 MonitoredObj=Line.EZT51__2491096 MonitoredTerm=1 SwitchedObj=Line.EZT51__2491096 SwitchedTerm=1 RatedCurrent= 25  enable=F
New Line.126764__2586283 Bus1=26365186 Bus2=26365188 Switch=T
New Fuse.126764__2586283 MonitoredObj=Line.126764__2586283 MonitoredTerm=1 SwitchedObj=Line.126764__2586283 SwitchedTerm=1 RatedCurrent= 20  enable=F
New Line.EZF13__2563753 Bus1=1709499 Bus2=1709500 Switch=T
New Fuse.EZF13__2563753 MonitoredObj=Line.EZF13__2563753 MonitoredTerm=1 SwitchedObj=Line.EZF13__2563753 SwitchedTerm=1 RatedCurrent= 1  enable=F
New Line.EZF16__2563754 Bus1=1709400 Bus2=103015288 Switch=T
New Fuse.EZF16__2563754 MonitoredObj=Line.EZF16__2563754 MonitoredTerm=1 SwitchedObj=Line.EZF16__2563754 SwitchedTerm=1 RatedCurrent= 50  enable=F
New Line.EZB36__2563709 Bus1=1710432 Bus2=1710433 Switch=T
New Fuse.EZB36__2563709 MonitoredObj=Line.EZB36__2563709 MonitoredTerm=1 SwitchedObj=Line.EZB36__2563709 SwitchedTerm=1 RatedCurrent= 1  enable=F
New Line.EZT51__2491098 Bus1=1708676 Bus2=26401854 Switch=T
New Fuse.EZT51__2491098 MonitoredObj=Line.EZT51__2491098 MonitoredTerm=1 SwitchedObj=Line.EZT51__2491098 SwitchedTerm=1 RatedCurrent= 25  enable=F
New Line.E0Z48__2586628 Bus1=1713098 Bus2=26400162 Switch=T
New Fuse.E0Z48__2586628 MonitoredObj=Line.E0Z48__2586628 MonitoredTerm=1 SwitchedObj=Line.E0Z48__2586628 SwitchedTerm=1 RatedCurrent= 25  enable=F
New Line.E0Z48__2586629 Bus1=1713098 Bus2=26400163 Switch=T
New Fuse.E0Z48__2586629 MonitoredObj=Line.E0Z48__2586629 MonitoredTerm=1 SwitchedObj=Line.E0Z48__2586629 SwitchedTerm=1 RatedCurrent= 25  enable=F
New Line.91T04__2577181 Bus1=25562478 Bus2=25562479 Switch=T
New Fuse.91T04__2577181 MonitoredObj=Line.91T04__2577181 MonitoredTerm=1 SwitchedObj=Line.91T04__2577181 SwitchedTerm=1 RatedCurrent= 1  enable=F
New Line.E0Z43__2586627 Bus1=1709590 Bus2=26400161 Switch=T
New Fuse.E0Z43__2586627 MonitoredObj=Line.E0Z43__2586627 MonitoredTerm=1 SwitchedObj=Line.E0Z43__2586627 SwitchedTerm=1 RatedCurrent= 25  enable=F
New Line.EZF72__103039245 Bus1=1710321 Bus2=103016068 Switch=T
New Fuse.EZF72__103039245 MonitoredObj=Line.EZF72__103039245 MonitoredTerm=1 SwitchedObj=Line.EZF72__103039245 SwitchedTerm=1 RatedCurrent= 1  enable=F
New Line.E1668__2586670 Bus1=1585995 Bus2=26402859 Switch=T
New Fuse.E1668__2586670 MonitoredObj=Line.E1668__2586670 MonitoredTerm=1 SwitchedObj=Line.E1668__2586670 SwitchedTerm=1 RatedCurrent= 25  enable=F
New Line.E3W33__2563767 Bus1=1715622 Bus2=26467628 Switch=T
New Fuse.E3W33__2563767 MonitoredObj=Line.E3W33__2563767 MonitoredTerm=1 SwitchedObj=Line.E3W33__2563767 SwitchedTerm=1 RatedCurrent= 1  enable=F
New Line.E2N61__2563781 Bus1=1713397 Bus2=1713398 Switch=T
New Fuse.E2N61__2563781 MonitoredObj=Line.E2N61__2563781 MonitoredTerm=1 SwitchedObj=Line.E2N61__2563781 SwitchedTerm=1 RatedCurrent= 1  enable=F
New Line.E0P61__2586592 Bus1=1709184 Bus2=26401833 Switch=T
New Fuse.E0P61__2586592 MonitoredObj=Line.E0P61__2586592 MonitoredTerm=1 SwitchedObj=Line.E0P61__2586592 SwitchedTerm=1 RatedCurrent= 25  enable=F
New Line.EZZ35__2491108 Bus1=1708631 Bus2=26401864 Switch=T
New Fuse.EZZ35__2491108 MonitoredObj=Line.EZZ35__2491108 MonitoredTerm=1 SwitchedObj=Line.EZZ35__2491108 SwitchedTerm=1 RatedCurrent= 1  enable=F
New Line.EW273__2563769 Bus1=25794216 Bus2=1715609 Switch=T
New Fuse.EW273__2563769 MonitoredObj=Line.EW273__2563769 MonitoredTerm=1 SwitchedObj=Line.EW273__2563769 SwitchedTerm=1 RatedCurrent= 1  enable=F
New Line.E3W33__2563768 Bus1=1715622 Bus2=1715623 Switch=T
New Fuse.E3W33__2563768 MonitoredObj=Line.E3W33__2563768 MonitoredTerm=1 SwitchedObj=Line.E3W33__2563768 SwitchedTerm=1 RatedCurrent= 1  enable=F
New Line.E1653__2569470 Bus1=1586082 Bus2=1586083 Switch=T
New Fuse.E1653__2569470 MonitoredObj=Line.E1653__2569470 MonitoredTerm=1 SwitchedObj=Line.E1653__2569470 SwitchedTerm=1 RatedCurrent= 1  enable=F
New Line.EZZ21__2470736 Bus1=1709299 Bus2=1709300 Switch=T
New Fuse.EZZ21__2470736 MonitoredObj=Line.EZZ21__2470736 MonitoredTerm=1 SwitchedObj=Line.EZZ21__2470736 SwitchedTerm=1 RatedCurrent= 1  enable=F
New Line.E1619__104088275 Bus1=1586029 Bus2=103362833 Switch=T
New Fuse.E1619__104088275 MonitoredObj=Line.E1619__104088275 MonitoredTerm=1 SwitchedObj=Line.E1619__104088275 SwitchedTerm=1 RatedCurrent= 20  enable=F
New Line.E2J87__2563774 Bus1=25255045 Bus2=1714213 Switch=T
New Fuse.E2J87__2563774 MonitoredObj=Line.E2J87__2563774 MonitoredTerm=1 SwitchedObj=Line.E2J87__2563774 SwitchedTerm=1 RatedCurrent= 65  enable=F
New Line.E1641__2586665 Bus1=1586171 Bus2=26402854 Switch=T
New Fuse.E1641__2586665 MonitoredObj=Line.E1641__2586665 MonitoredTerm=1 SwitchedObj=Line.E1641__2586665 SwitchedTerm=1 RatedCurrent= 25  enable=F
New Line.E1641__2586666 Bus1=1586171 Bus2=26402855 Switch=T
New Fuse.E1641__2586666 MonitoredObj=Line.E1641__2586666 MonitoredTerm=1 SwitchedObj=Line.E1641__2586666 SwitchedTerm=1 RatedCurrent= 25  enable=F
New Line.E1590__2582526 Bus1=1586054 Bus2=25995779 Switch=T
New Fuse.E1590__2582526 MonitoredObj=Line.E1590__2582526 MonitoredTerm=1 SwitchedObj=Line.E1590__2582526 SwitchedTerm=1 RatedCurrent= 1  enable=F
New Line.E1645__2586667 Bus1=1586119 Bus2=26402856 Switch=T
New Fuse.E1645__2586667 MonitoredObj=Line.E1645__2586667 MonitoredTerm=1 SwitchedObj=Line.E1645__2586667 SwitchedTerm=1 RatedCurrent= 25  enable=F
New Line.10GF24__2581619 Bus1=25929740 Bus2=25929746 Switch=T
New Fuse.10GF24__2581619 MonitoredObj=Line.10GF24__2581619 MonitoredTerm=1 SwitchedObj=Line.10GF24__2581619 SwitchedTerm=1 RatedCurrent= 20  enable=F
New Line.E2M47__2587793 Bus1=1587162 Bus2=26505378 Switch=T
New Fuse.E2M47__2587793 MonitoredObj=Line.E2M47__2587793 MonitoredTerm=1 SwitchedObj=Line.E2M47__2587793 SwitchedTerm=1 RatedCurrent= 20  enable=F
New Line.10GF24__2581617 Bus1=25929740 Bus2=25929742 Switch=T
New Fuse.10GF24__2581617 MonitoredObj=Line.10GF24__2581617 MonitoredTerm=1 SwitchedObj=Line.10GF24__2581617 SwitchedTerm=1 RatedCurrent= 20  enable=F
New Line.130C74__2492966 Bus1=26548696 Bus2=26548701 Switch=T
New Fuse.130C74__2492966 MonitoredObj=Line.130C74__2492966 MonitoredTerm=1 SwitchedObj=Line.130C74__2492966 SwitchedTerm=1 RatedCurrent= 25  enable=F
New Line.EZB78__2586564 Bus1=1709119 Bus2=26400495 Switch=T
New Fuse.EZB78__2586564 MonitoredObj=Line.EZB78__2586564 MonitoredTerm=1 SwitchedObj=Line.EZB78__2586564 SwitchedTerm=1 RatedCurrent= 25  enable=F
New Line.E1613__2584249 Bus1=1586035 Bus2=26126566 Switch=T
New Fuse.E1613__2584249 MonitoredObj=Line.E1613__2584249 MonitoredTerm=1 SwitchedObj=Line.E1613__2584249 SwitchedTerm=1 RatedCurrent= 20  enable=F
New Line.EW624__103036621 Bus1=25116769 Bus2=103014807 Switch=T
New Fuse.EW624__103036621 MonitoredObj=Line.EW624__103036621 MonitoredTerm=1 SwitchedObj=Line.EW624__103036621 SwitchedTerm=1 RatedCurrent= 65  enable=F