New loadshape.LS_PhaseA npts=17280 sinterval=5 pmult=(2269.520000 2269.168149 2268.831962 2268.520329 2268.240605 2267.998279 2267.796734 2267.637094 2267.518180 2267.436558 2267.386688 2267.361174 2267.351090 2266.997236 2266.658854 2266.344884 2266.062734 2265.817952 2265.613980 2265.452006 2265.330911 2265.247324 2265.195765 2265.168894 2265.157835 2264.803888 2264.465856 2264.152686 2263.871788 2263.628709 2263.426884 2263.267492 2263.149404 2263.069235 2263.021492 2262.998820 2262.992334 2262.643363 2262.310655 2262.003144 2261.728235 2261.491468 2261.296277 2261.143842 2261.033037 2260.960485 2260.920700 2260.906340 2260.908529 2260.568914 2260.245931 2259.948510 2259.684052 2259.458093 2259.274066 2259.133150 2259.034220 2258.973898 2258.946704 2258.945296 2258.960803 2258.635042 2258.326274 2258.043426 2257.793893 2257.583209 2257.414805 2257.289857 2257.207240 2257.163577 2257.153388 2257.169335 2257.202546 2256.894986 2256.604765 2256.340804 2256.110493 2255.919364 2255.770842 2255.666104 2255.604023 2255.581221 2255.592218 2255.629676 2255.684726 2255.399447 2255.131825 2254.890777 2254.683689 2254.516087 2254.391395 2254.310785 2254.273130 2254.275048 2254.311060 2254.373826 2254.454477 2254.195176 2253.953815 2253.739307 2253.559031 2253.418511 2253.321166 2253.268166 2253.258380 2253.288425 2253.352818 2253.444218 2253.553754 2253.323635 2253.111695 2252.926842 2252.776451 2252.666042 2252.599028 2252.576578 2252.597555 2252.658574 2252.754148 2252.876933 2253.018053 2252.819727 2252.639768 2252.487077 2252.369027 2252.291132 2252.256803 2252.267201 2252.321189 2252.415375 2252.544269 2252.700520 2252.875249 2252.710643 2252.564532 2252.445812 2252.361853 2252.318164 2252.318152 2252.362975 2252.451488 2252.580297 2252.743904 2252.934953 2253.144558 2253.013026 2252.900148 2252.814921 2252.764806 2252.755390 2252.790140 2252.870252 2252.994593 2253.159754 2253.360195 2253.588488 2253.835647 2253.747641 2253.678003 2253.635238 2253.626334 2253.656449 2253.728682 2253.843942 2254.000914 2254.196118 2254.424077 2254.677560 2254.947923 2254.869592 2254.809438 2254.777409 2254.781991 2254.829846 2254.925534 2255.071335 2255.267161 2255.510578 2255.796925 2256.119525 2256.470000 2256.498737 2256.555271 2256.647932 2256.783348 2256.966135 2257.198682 2257.481030 2257.810852 2258.183538 2258.592372 2259.028814 2259.482852 2259.587084 2259.707462 2259.852591 2260.029663 2260.244118 2260.499393 2260.796759 2261.135257 2261.511734 2261.920973 2262.355920 2262.807997 2262.922695 2263.054869 2263.213481 2263.405928 2263.637720 2263.912230 2264.230547 2264.591427 2264.991346 2265.424651 2265.883809 2266.359741 2266.491265 2266.639320 2266.812777 2267.018974 2267.263385 2267.549374 2267.878045 2268.248191 2268.656347 2269.096932 2269.562499 2270.044063 2270.182020 2270.335818 2270.514335 2270.724911 2270.973022 2271.262032 2271.593043 2271.964846 2272.373968 2272.814823 2273.279954 2273.760365 2273.896138 2274.047033 2274.221931 2274.428178 2274.671252 2274.954518 2275.279077 2275.643719 2276.044964 2276.477221 2276.933026 2277.403373 2277.528051 2277.667113 2277.829445 2278.022400 2278.251458 2278.519987 2278.829087 2279.177545 2279.561881 2279.976497 2280.413923 2280.865148 2280.969696 2281.087886 2281.228612 2281.399230 2281.605226 2281.849968 2282.134559 2282.457786 2282.816164 2283.204095 2283.614104 2284.037174 2284.112611 2284.200959 2284.311118 2284.450451 2284.624447 2284.836477 2285.087647 2285.376742 2285.700280 2286.052659 2286.426404 2286.812494 2286.850071 2286.899853 2286.970747 2287.070120 2287.203466 2287.374161 2287.583311 2287.829706 2288.109862 2288.418180 2288.747183 2289.087853 2289.079230 2289.082145 2289.105513 2289.156703 2289.241215 2289.362429 2289.521454 2289.717082 2289.945834 2290.202112 2290.478442 2290.765809 2290.703230 2290.651576 2290.619765 2290.615173 2290.643303 2290.707539 2290.808994 2290.946465 2291.116478 2291.313437 2291.529877 2291.756788 2291.635999 2291.525442 2291.433879 2291.368544 2291.334819 2291.335994 2291.373125 2291.444984 2291.548116 2291.676992 2291.824249 2291.981024 2291.780504 2291.590171 2291.419535 2291.276547 2291.167244 2291.095473 2291.062722 2291.068044 2291.108084 2291.177218 2291.267779 2291.370383 2291.135829 2290.911249 2290.703951 2290.519603 2290.361945 2290.232595 2290.130952 2290.054192 2289.997372 2289.953621 2289.914425 2289.870000 2289.446880 2289.018556 2288.594802 2288.184114 2287.793346 2287.427426 2287.089163 2286.779145 2286.495746 2286.235222 2285.991910 2285.758509 2285.188800 2284.631124 2284.094829 2283.587548 2283.114874 2282.680135 2282.284262 2281.925758 2281.600773 2281.303283 2281.025357 2280.757515 2280.134073 2279.520100 2278.924399 2278.354282 2277.815233 2277.310674 2276.841813 2276.407586 2276.004713 2275.627837 2275.269762 2274.921779 2274.228644 2273.545893 2272.882456 2272.245731 2271.641254 2271.072459 2270.540526 2270.044338 2269.580528 2269.143633 2268.726335 2268.319790 2267.566697 2266.824524 2266.102185 2265.407066 2264.744696 2264.118502 2263.529670 2262.977089 2262.457405 2261.965173 2261.493098 2261.032365 2260.226594 2259.432348 2258.658524 2257.912493 2257.199771 2256.523785 2255.885718 2255.284468 2254.716693 2254.176967 2253.658018 2253.151060 2252.300705 2251.462538 2250.645436 2249.856751 2249.101991 2248.384573 2247.705681 2247.064218 2246.456858 2245.878191 2245.320970 2244.776437 2243.890254 2243.016968 2242.165431 2241.342980 2240.555105 2239.805217 2239.094500 2238.421861 2237.783986 2237.175484 2236.589133 2236.016203 2235.103450 2234.204336 2233.327687 2232.480818 2231.669205 2230.896250 2230.163134 2229.468769 2228.809852 2228.181011 2227.575048 2226.983262 2226.053536 2225.138208 2224.246079 2223.384440 2222.558751 2221.772403 2221.026574 2220.320180 2219.649929 2219.010467 2218.394619 2217.793712 2216.856777 2215.935005 2215.037169 2214.170536 2213.340549 2212.550585 2211.801820 2211.093173 2210.421361 2209.781047 2209.165080 2208.564814 2207.630432 2206.711972 2205.818176 2204.956285 2204.131723 2203.347857 2202.605855 2201.904640 2201.240937 2200.609427 2200.002978 2199.412973 2198.489537 2197.582824 2196.701614 2195.853187 2195.043000 2194.274450 2193.548727 2192.864768 2192.219300 2191.606995 2191.020698 2190.451758 2189.555272 2188.676025 2187.822441 2187.001463 2186.218242 2185.475920 2184.775494 2184.115781 2183.493476 2182.903309 2182.338283 2181.790003 2180.907073 2180.041968 2179.204041 2178.401207 2177.639603 2176.923331 2176.254295 2175.632135 2175.054251 2174.515934 2174.010581 2173.530000 2172.734608 2171.964146 2171.226859 2170.529399 2169.876520 2169.270866 2168.712844 2168.200606 2167.730110 2167.295298 2166.888345 2166.500002 2165.779971 2165.077787 2164.401850 2163.759165 2163.155016 2162.592734 2162.073545 2161.596512 2161.158577 2160.754696 2160.378059 2160.020396 2159.341104 2158.681215 2158.049335 2157.452584 2156.896273 2156.383680 2155.915902 2155.491816 2155.108123 2154.759503 2154.438846 2154.137571 2153.511664 2152.905164 2152.326590 2151.782998 2151.279657 2150.819826 2150.404608 2150.032904 2149.701464 2149.405027 2149.136558 2148.887561 2148.316043 2147.764066 2147.240127 2146.751260 2146.302720 2145.897753 2145.537456 2145.220727 2144.944318 2144.702974 2144.489671 2144.295923 2143.780414 2143.284511 2142.816691 2142.383968 2141.991583 2141.642772 2141.338624 2141.078036 2140.857760 2140.672549 2140.515384 2140.377791 2139.919048 2139.479910 2139.068834 2138.692818 2138.357090 2138.064874 2137.817255 2137.613127 2137.449244 2137.320361 2137.219468 2137.138099 2136.736045 2136.353530 2135.998995 2135.679423 2135.400028 2135.164028 2134.972501 2134.824340 2134.716299 2134.643136 2134.597846 2134.571971 2134.225734 2133.898910 2133.599925 2133.335748 2133.111586 2132.930647 2132.794006 2132.700553 2132.647041 2132.628232 2132.637125 2132.665266 2132.373230 2132.100426 2131.855266 2131.644710 2131.473956 2131.346206 2131.262530 2131.221816 2131.220819 2131.254300 2131.315262 2131.395255 2131.155125 2130.933995 2130.740269 2130.580896 2130.461068 2130.383983 2130.350707 2130.360126 2130.408994 2130.492075 2130.602371 2130.731437 2130.540311 2130.367911 2130.222631 2130.111417 2130.039453 2130.009934 2130.023924 2130.080308 2130.175838 2130.305278 2130.461632 2130.636456 2130.491735 2130.365385 2130.265746 2130.199717 2130.172441 2130.187081 2130.244680 2130.344112 2130.482135 2130.653527 2130.851323 2131.067119 2130.960306 2130.871651 2130.809715 2130.781610 2130.792673 2130.846232 2130.943457 2131.083304 2131.262557 2131.475963 2131.716460 2131.975483 2131.917633 2131.877628 2131.863369 2131.881277 2131.935999 2132.030192 2132.164396 2132.337000 2132.544307 2132.780685 2133.038814 2133.310000 2133.251362 2133.205720 2133.181719 2133.186635 2133.226055 2133.303630 2133.420928 2133.577361 2133.770227 2133.994830 2134.244700 2134.511881 2134.461432 2134.428850 2134.422657 2134.449870 2134.515698 2134.623311 2134.773708 2134.965670 2135.195820 2135.458768 2135.747350 2136.052945 2136.034395 2136.032577 2136.055855 2136.111155 2136.203658 2136.336564 2136.510954 2136.725741 2136.977711 2137.261670 2137.570666 2137.896298 2137.900134 2137.920589 2137.966075 2138.043554 2138.158225 2138.313297 2138.509844 2138.746758 2139.020796 2139.326724 2139.657540 2140.004792 2140.028934 2140.069449 2140.134756 2140.231821 2140.365850 2140.540055 2140.755511 2141.011112 2141.303612 2141.627774 2141.976593 2142.341612 2142.383007 2142.440537 2142.522629 2142.636257 2142.786632 2142.976969 2143.208347 2143.479658 2143.787657 2144.127103 2144.490986 2144.870841 2144.926538 2144.998145 2145.094096 2145.221375 2145.385198 2145.588785 2145.833217 2146.117388 2146.438051 2146.789961 2147.166102 2147.558004 2147.625197 2147.708089 2147.815125 2147.953297 2148.127828 2148.341943 2148.596727 2148.891073 2149.221733 2149.583457 2149.969226 2150.370562 2150.446630 2150.538205 2150.653742 2150.800242 2150.982937 2151.205058 2151.467691 2151.769731 2152.107928 2152.477028 2152.870007 2153.278377 2153.360919 2153.458797 2153.580476 2153.732969 2153.921515 2154.149351 2154.417566 2154.725056 2155.068569 2155.442848 2155.840861 2156.254114 2156.340982 2156.443036 2156.568757 2156.725165 2156.917509 2157.149031 2157.420825 2157.731787 2158.078663 2158.456193 2158.857337 2159.273593 2159.362917 2159.467303 2159.595244 2159.753773 2159.948147 2160.181613 2160.455271 2160.768016 2161.116594 2161.495738 2161.898403 2162.316079 2162.407983 2162.514762 2162.644824 2162.805123 2163.000847 2163.235193 2163.509221 2163.821813 2164.169719 2164.547704 2164.948775 2165.364498 2165.448234 2165.547036 2165.669784 2165.823883 2166.014932 2166.246474 2166.519837 2166.834070 2167.185980 2167.570263 2167.979724 2168.405594 2168.511460 2168.632452 2168.776109 2168.948441 2169.153643 2169.393888 2169.669220 2169.977529 2170.314636 2170.674454 2171.049255 2171.430000 2171.464678 2171.505293 2171.560913 2171.639299 2171.746568 2171.886934 2172.062534 2172.273356 2172.517248 2172.790037 2173.085726 2173.396787 2173.387210 2173.394276 2173.426807 2173.492049 2173.595354 2173.739957 2173.926844 2174.154715 2174.420045 2174.717243 2175.038900 2175.376126 2175.380130 2175.399278 2175.442077 2175.515589 2175.625108 2175.773933 2175.963220 2176.191930 2176.456874 2176.752857 2177.072900 2177.408560 2177.416570 2177.440318 2177.488405 2177.567961 2177.684324 2177.840805 2178.038543 2178.276458 2178.551300 2178.857787 2179.188844 2179.535918 2179.553520 2179.587166 2179.645472 2179.735574 2179.862817 2180.030515 2180.239809 2180.489617 2180.776683 2181.095718 2181.439636 2181.799873 2181.830477 2181.877423 2181.949335 2182.053359 2182.194845 2182.377111 2182.601297 2182.866320 2183.168915 2183.503786 2183.863837 2184.240488 2184.287306 2184.350741 2184.439429 2184.560522 2184.719376 2184.919311 2185.161468 2185.444759 2185.765913 2186.119624 2186.498782 2186.894793 2186.960720 2187.043509 2187.151805 2187.292769 2187.471762 2187.692106 2187.954940 2188.259172 2188.601524 2188.976678 2189.377511 2189.795412 2189.882915 2189.987485 2190.117777 2190.280961 2190.482400 2190.725421 2191.011159 2191.338517 2191.704209 2192.102905 2192.527467 2192.969266 2193.080280 2193.208520 2193.362650 2193.549846 2193.775477 2194.042871 2194.353161 2194.705245 2195.095826 2195.519561 2195.969297 2196.436386 2196.572223 2196.725390 2196.904559 2197.116916 2197.367832 2197.660637 2197.996461 2198.374196 2198.790535 2199.240121 2199.715783 2200.208854 2200.370122 2200.548761 2200.753455 2200.991396 2201.267961 2201.586478 2201.948078 2202.351643 2202.793856 2203.269346 2203.770923 2204.289900 2204.474004 2204.675585 2204.903477 2205.165007 2205.465668 2205.808873 2206.195807 2206.625369 2207.094219 2207.596921 2208.126181 2208.673168 2208.892705 2209.129251 2209.390994 2209.684640 2210.015113 2210.385339 2210.796122 2211.246114 2211.731881 2212.248063 2212.787623 2213.342181 2213.550593 2213.775703 2214.027646 2214.315152 2214.645172 2215.022602 2215.450087 2215.927931 2216.454098 2217.024320 2217.632299 2218.270000 2218.597270 2218.954126 2219.348550 2219.786784 2220.273049 2220.809328 2221.395269 2222.028169 2222.703069 2223.412943 2224.148981 2224.900951 2225.304425 2225.721861 2226.161618 2226.630708 2227.134460 2227.676274 2228.257447 2228.877112 2229.532266 2230.217887 2230.927156 2231.651755 2232.044190 2232.452406 2232.885248 2233.350015 2233.852138 2234.394935 2234.979465 2235.604478 2236.266470 2236.959835 2237.677104 2238.409282 2238.799593 2239.204479 2239.632679 2240.091420 2240.586091 2241.120003 2241.694238 2242.307599 2242.956659 2243.635906 2244.337983 2245.054014 2245.429044 2245.817822 2246.229102 2246.670125 2247.146289 2247.660910 2248.215071 2248.807572 2249.434977 2250.091762 2250.770555 2251.462463 2251.811842 2252.174132 2252.558103 2252.971009 2253.418259 2253.903175 2254.426842 2254.988056 2255.583377 2256.207270 2256.852351 2257.509709 2257.823072 2258.148515 2258.494828 2258.869276 2259.277279 2259.722166 2260.205025 2260.724651 2261.277600 2261.858329 2262.459444 2263.072022 2263.339226 2263.617708 2263.916271 2264.242196 2264.600914 2264.995759 2265.427824 2265.895907 2266.396557 2266.924230 2267.471523 2268.029503 2268.240852 2268.462719 2268.703922 2268.971757 2269.271663 2269.606985 2269.978818 2270.385964 2270.824972 2271.290293 2271.774522 2272.268721 2272.415178 2272.571455 2272.746383 2272.947271 2273.179569 2273.446629 2273.749554 2274.087146 2274.455960 2274.850446 2275.263196 2275.685271 2275.758671 2275.841267 2275.941908 2276.067911 2276.224738 2276.415748 2276.642051 2276.902456 2277.193519 2277.509695 2277.843578 2278.186231 2278.179473 2278.181384 2278.200820 2278.245113 2278.319732 2278.428045 2278.571170 2278.747922 2278.954863 2279.186454 2279.435294 2279.692453 2279.604257 2279.524062 2279.460474 2279.420591 2279.409685 2279.430970 2279.485464 2279.571945 2279.687006 2279.825208 2279.979322 2280.140656 2279.941008 2279.749762 2279.576769 2279.430316 2279.316764 2279.240254 2279.202519 2279.202800 2279.237853 2279.302080 2279.387740 2279.485269 2279.255438 2279.034114 2278.827499 2278.640098 2278.474465 2278.331046 2278.208109 2278.101782 2278.006180 2277.913630 2277.814983 2277.700000 2277.188949 2276.661662 2276.128432 2275.598455 2275.079454 2274.577358 2274.096090 2273.637429 2273.200988 2272.784272 2272.382844 2271.990576 2271.272581 2270.567311 2269.884363 2269.231507 2268.614379 2268.036258 2267.497953 2266.997784 2266.531674 2266.093338 2265.674571 2265.265623 2264.498956 2263.741123 2263.000826 2262.285306 2261.600022 2260.948410 2260.331736 2259.749035 2259.197165 2258.670938 2258.163358 2257.665934 2256.827988 2256.000706 2255.193005 2254.412278 2253.664071 2252.951841 2252.276809 2251.637914 2251.031864 2250.453284 2249.894959 2249.348163 2248.458292 2247.580234 2246.722887 2245.893633 2245.098006 2244.339460 2243.619218 2242.936226 2242.287203 2241.666792 2241.067803 2240.481535 2239.554330 2238.640141 2237.747850 2236.884819 2236.056574 2235.266559 2234.515997 2233.803840 2233.126819 2232.479593 2231.854994 2231.244346 2230.294979 2229.359867 2228.447867 2227.566323 2226.720745 2225.914571 2225.149020 2224.423048 2223.733395 2223.074737 2222.439924 2221.820309 2220.864227 2219.923646 2219.007395 2218.122800 2217.275353 2216.468480 2215.703399 2214.979064 2214.292226 2213.637573 2213.007976 2212.394809 2211.447419 2210.516757 2209.611626 2208.739327 2207.905334 2207.113063 2206.363721 2205.656266 2204.987454 2204.351987 2203.742749 2203.151138 2202.227495 2201.321764 2200.442720 2199.597638 2198.791974 2198.029128 2197.310301 2196.634450 2195.998332 2195.396661 2194.822337 2194.266774 2193.381272 2192.514801 2191.676104 2190.872432 2190.109218 2189.389847 2188.715513 2188.085166 2187.495570 2186.941441 2186.415695 2185.909760 2185.075844 2184.261985 2183.476899 2182.727806 2182.020122 2181.357215 2180.740265 2180.168221 2179.637843 2179.143857 2178.679183 2178.235265 2177.461078 2176.708081 2175.985194 2175.299827 2174.657556 2174.061876 2173.514054 2173.013068 2172.555660 2172.136474 2171.748294 2171.382365 2170.701417 2170.041818 2169.411356 2168.816360 2168.261421 2167.749201 2167.280321 2166.853349 2166.464885 2166.109726 2165.781125 2165.471122 2164.817461 2164.185539 2163.586368 2163.029630 2162.523290 2162.073290 2161.683332 2161.354757 2161.086521 2160.875279 2160.715552 2160.600000 2160.203287 2159.850793 2159.549863 2159.305975 2159.122476 2159.000407 2158.938428 2158.932841 2158.977711 2159.065087 2159.185305 2159.327378 2159.126850 2158.945127 2158.790151 2158.668651 2158.585814 2158.545034 2158.547739 2158.593314 2158.679115 2158.800577 2158.951408 2159.123867 2158.983416 2158.865587 2158.779092 2158.731111 2158.726973 2158.769919 2158.860964 2158.998852 2159.180111 2159.399207 2159.648782 2159.919990 2159.864079 2159.829452 2159.824605 2159.856561 2159.930554 2160.049796 2160.215332 2160.425994 2160.678444 2160.967323 2161.285482 2161.624296 2161.639306 2161.674813 2161.739302 2161.839788 2161.981496 2162.167631 2162.399229 2162.675114 2162.991940 2163.344339 2163.725153 2164.125748 2164.201588 2164.297024 2164.420539 2164.579139 2164.778046 2165.020456 2165.307401 2165.637697 2166.007991 2166.412907 2166.845278 2167.296460 2167.421772 2167.565692 2167.736698 2167.941794 2168.186199 2168.473106 2168.803541 2169.176315 2169.588069 2170.033420 2170.505191 2170.994731 2171.157160 2171.337139 2171.543145 2171.782186 2172.059478 2172.378212 2172.739413 2173.141886 2173.582268 2174.055170 2174.553407 2175.068319 2175.254790 2175.457709 2175.685558 2175.945344 2176.242285 2176.579576 2176.958237 2177.377073 2177.832718 2178.319775 2178.831056 2179.357892 2179.554910 2179.767253 2180.003408 2180.270388 2180.573415 2180.915685 2181.298221 2181.719827 2182.177134 2182.664742 2183.175457 2183.700606 2183.894553 2184.102705 2184.333559 2184.594133 2184.889657 2185.223329 2185.596175 2186.007001 2186.452437 2186.927082 2187.423739 2187.933732 2188.111171 2188.301724 2188.513898 2188.754721 2189.029428 2189.341223 2189.691139 2190.077981 2190.498383 2190.946945 2191.416468 2191.898275 2192.050394 2192.214369 2192.398477 2192.609538 2192.852608 2193.130751 2193.444908 2193.793849 2194.174232 2194.580741 2195.006328 2195.442526 2195.533935 2195.636878 2195.760763 2195.913495 2196.101119 2196.327542 2196.594354 2196.900743 2197.243510 2197.617191 2198.014267 2198.425469 2198.521399 2198.628246 2198.752119 2198.897493 2199.066964 2199.261089 2199.478314 2199.715002 2199.965555 2200.222623 2200.477400 2200.720000 2200.583910 2200.435578 2200.284832 2200.140419 2200.009629 2199.898005 2199.809126 2199.744488 2199.703478 2199.683442 2199.679846 2199.686525 2199.377298 2199.081424 2198.808108 2198.564807 2198.356925 2198.187600 2198.057586 2197.965233 2197.906578 2197.875518 2197.864091 2197.862832 2197.515507 2197.177298 2196.856610 2196.560429 2196.294007 2196.060631 2195.861472 2195.695533 2195.559696 2195.448851 2195.356128 2195.273199 2194.858724 2194.454351 2194.068694 2193.708889 2193.380275 2193.086163 2192.827691 2192.603774 2192.411157 2192.244557 2192.096899 2191.959635 2191.487441 2191.025752 2190.583180 2190.166861 2189.782137 2189.432321 2189.118558 2188.839771 2188.592716 2188.372124 2188.170937 2187.980624 2187.456313 2186.943008 2186.449320 2185.982381 2185.547533 2185.148092 2184.785206 2184.457807 2184.162662 2183.894516 2183.646326 2183.409581 2182.839917 2182.281851 2181.743983 2181.233444 2180.755573 2180.313686 2179.908936 2179.540261 2179.204439 2178.896227 2178.608601 2178.333066 2177.725818 2177.130831 2176.556698 2176.010542 2175.497697 2175.021480 2174.583045 2174.181338 2173.813145 2173.473238 2173.154607 2172.848777 2172.212541 2171.589288 2170.987600 2170.414591 2169.875591 2169.373914 2168.910715 2168.484944 2168.093399 2167.730861 2167.390337 2167.063371 2166.407381 2165.765138 2165.145213 2164.554709 2163.998949 2163.481242 2163.002744 2162.562411 2162.157044 2161.781441 2161.428621 2161.090145 2160.424074 2159.772542 2159.144105 2158.545855 2157.983105 2157.459160 2156.975174 2156.530106 2156.120765 2155.741958 2155.386718 2155.046624 2154.380382 2153.729480 2153.102459 2152.506397 2151.946598 2151.426361 2150.946836 2150.506985 2150.103623 2149.731565 2149.383858 2149.052094 2148.394196 2147.752509 2147.135638 2146.550724 2146.003122 2145.496174 2145.031064 2144.606764 2144.220088 2143.865830 2143.536998 2143.225126 2142.593305 2141.978246 2141.388154 2140.829782 2140.308140 2139.826274 2139.385141 2138.983574 2138.618341 2138.284296 2137.974620 2137.681133 2137.058530 2136.453338 2135.874879 2135.331076 2134.828112 2134.370181 2133.959316 2133.595322 2133.275794 2132.996242 2132.750295 2132.530000 2132.003333 2131.502450 2131.035379 2130.608561 2130.226554 2129.891832 2129.604658 2129.363073 2129.162961 2128.998222 2128.861027 2128.742153 2128.296196 2127.867608 2127.464617 2127.094098 2126.761252 2126.469371 2126.219692 2126.011336 2125.841346 2125.704814 2125.595099 2125.504124 2125.097286 2124.709648 2124.349702 2124.024472 2123.739203 2123.497129 2123.299340 2123.144731 2123.030055 2122.950068 2122.897758 2122.864664 2122.511475 2122.177485 2121.871100 2121.599282 2121.367235 2121.178181 2121.033216 2120.931265 2120.869128 2120.841623 2120.841815 2120.861326 2120.562589 2120.283209 2120.031581 2119.814656 2119.637628 2119.503713 2119.413999 2119.367407 2119.360734 2119.388794 2119.444651 2119.519924 2119.277212 2119.053936 2118.858479 2118.697782 2118.577033 2118.499440 2118.466084 2118.475882 2118.525626 2118.610127 2118.722444 2118.854195 2118.668067 2118.501370 2118.362480 2118.258330 2118.194102 2118.172994 2118.196086 2118.262287 2118.368383 2118.509183 2118.677738 2118.865663 2118.735659 2118.625001 2118.542059 2118.493759 2118.485278 2118.519808 2118.598424 2118.720029 2118.881404 2119.077351 2119.300917 2119.543707 2119.468366 2119.412206 2119.383594 2119.389451 2119.434948 2119.523277 2119.655504 2119.830527 2120.045123 2120.294085 2120.570453 2120.865824 2120.842713 2120.838544 2120.861679 2120.919039 2121.015792 2121.155124 2121.338098 2121.563608 2121.828422 2122.127327 2122.453354 2122.798091 2122.823854 2122.868247 2122.939634 2123.044933 2123.189311 2123.375951 2123.605913 2123.878085 2124.189229 2124.534124 2124.905790 2125.295804 2125.366225 2125.454899 2125.570190 2125.719020 2125.906553 2126.135974 2126.408336 2126.722524 2127.075293 2127.461413 2127.873894 2128.304302 2128.414572 2128.542649 2128.696890 2128.884207 2129.109759 2129.376721 2129.686141 2130.036897 2130.425737 2130.847427 2131.294973 2131.759938 2131.903267 2132.063945 2132.250388 2132.469563 2132.726678 2133.024947 2133.365447 2133.747070 2134.166566 2134.618682 2135.096393 2135.591209 2135.764907 2135.955436 2136.171060 2136.418592 2136.703077 2137.027575 2137.393013 2137.798145 2138.239601 2138.712033 2139.208343 2139.720000 2139.906583 2140.108381 2140.333846 2140.589998 2140.882114 2141.213491 2141.585299 2141.996534 2142.444057 2142.922732 2143.425652 2143.944451 2144.140163 2144.351761 2144.587675 2144.854870 2145.158537 2145.501858 2145.885869 2146.309411 2146.769177 2147.259857 2147.774369 2148.304175 2148.508394 2148.727712 2148.970530 2149.243800 2149.552711 2149.900457 2150.288094 2150.714490 2151.176375 2151.668479 2152.183760 2152.713722 2152.917713 2153.136253 2153.377766 2153.649219 2153.955813 2154.300747 2154.685077 2155.107665 2155.565228 2156.052481 2156.562363 2157.086354 2157.283129 2157.493871 2157.727018 2157.989546 2158.286665 2158.621578 2158.995343 2159.406821 2159.852727 2160.327768 2160.824876 2161.335520 2161.517928 2161.713736 2161.931391 2162.177884 2162.458429 2162.776236 2163.132365 2163.525679 2163.952888 2164.408696 2164.886026 2165.376339 2165.537441 2165.711397 2165.906667 2166.130251 2166.387372 2166.681247 2167.012937 2167.381307 2167.783066 2168.212913 2168.663765 2169.127077 2169.260267 2169.405797 2169.572138 2169.766302 2169.993519 2170.257012 2170.557848 2170.894892 2171.264852 2171.662424 2172.080522 2172.510595 2172.609718 2172.720706 2172.852045 2173.010754 2173.202073 2173.429232 2173.693301 2173.993147 2174.325480 2174.684993 2175.064599 2175.455742 2175.515205 2175.586110 2175.676951 2175.794761 2175.944786 2176.130261 2176.352264 2176.609663 2176.899169 2177.215477 2177.551497 2177.898672 2177.913551 2177.939505 2177.985041 2178.057197 2178.161231 2178.300382 2178.475733 2178.686156 2178.928365 2179.197057 2179.485142 2179.784063 2179.750199 2179.727109 2179.723308 2179.745844 2179.799981 2179.888966 2180.013886 2180.173618 2180.364879 2180.582369 2180.819002 2181.066222 2180.982405 2180.909021 2180.854471 2180.825700 2180.827883 2180.864199 2180.935692 2181.041222 2181.177522 2181.339337 2181.519662 2181.710050 2181.562144 2181.424840 2181.307116 2181.216467 2181.158569 2181.137030 2181.153223 2181.206224 2181.292840 2181.407746 2181.543700 2181.691856 2181.517127 2181.353056 2181.206947 2181.084558 2180.989822 2180.924647 2180.888816 2180.879978 2180.893726 2180.923783 2180.962259 2181.000000 2180.683283 2180.365882 2180.056982 2179.764499 2179.494740 2179.252136 2179.039070 2178.855786 2178.700405 2178.569030 2178.455940 2178.353867 2177.929683 2177.518165 2177.128181 2176.766994 2176.439953 2176.150275 2175.898912 2175.684522 2175.503532 2175.350305 2175.217390 2175.095859 2174.637585 2174.190259 2173.762336 2173.360837 2172.991033 2172.656213 2172.357539 2172.094001 2171.862455 2171.657770 2171.473052 2171.299951 2170.798109 2170.308137 2169.838593 2169.396568 2168.987374 2168.614309 2168.278518 2167.978945 2167.712381 2167.473610 2167.255637 2167.050010 2166.514596 2165.991680 2165.489811 2165.016076 2164.575781 2164.172224 2163.806551 2163.477711 2163.182502 2162.915716 2162.670373 2162.438033 2161.877042 2161.329217 2160.803097 2160.305760 2159.842508 2159.416637 2159.029294 2158.679428 2158.363847 2158.077351 2157.812972 2157.562285 2156.984141 2156.419857 2155.877961 2155.365523 2154.887837 2154.448194 2154.047742 2153.685434 2153.358081 2153.060493 2152.785714 2152.525331 2151.938721 2151.366678 2150.817718 2150.298900 2149.815510 2149.370836 2148.966023 2148.600025 2148.269658 2147.969742 2147.693328 2147.432020 2146.845723 2146.274699 2145.727452 2145.211029 2144.730707 2144.289767 2143.889352 2143.528418 2143.203784 2142.910276 2142.640957 2142.387439 2141.810157 2141.248841 2140.711980 2140.206608 2139.737994 2139.309411 2138.921999 2138.574714 2138.264377 2137.985821 2137.732117 2137.494887 2136.935075 2136.391896 2135.873823 2135.387876 2134.939313 2134.531403 2134.165277 2133.839892 2133.552072 2133.296653 2133.066712 2132.853883 2132.319592 2131.802559 2131.311242 2130.852648 2130.432026 2130.052632 2129.715597 2129.419872 2129.162284 2128.937671 2128.739118 2128.558262 2128.055385 2127.570425 2127.111915 2126.686935 2126.300793 2125.956795 2125.656102 2125.397680 2125.178345 2124.992907 2124.834396 2124.694376 2124.238623 2123.801052 2123.389750 2123.011369 2122.670830 2122.371109 2122.113114 2121.895648 2121.715473 2121.567458 2121.444818 2121.339431 2120.907368 2120.493827 2120.108158 2119.758322 2119.450560 2119.189133 2118.976153 2118.811510 2118.692890 2118.615888 2118.574218 2118.560000 2118.243843 2117.955189 2117.701948 2117.490429 2117.325061 2117.208183 2117.139929 2117.118214 2117.138804 2117.195490 2117.280344 2117.384058 2117.161952 2116.957540 2116.778959 2116.633010 2116.524840 2116.457708 2116.432832 2116.449333 2116.504266 2116.592749 2116.708175 2116.842505 2116.662808 2116.502429 2116.369805 2116.271912 2116.213950 2116.199117 2116.228467 2116.300869 2116.413052 2116.559753 2116.733943 2116.927151 2116.800864 2116.693475 2116.613334 2116.567354 2116.560697 2116.596548 2116.675971 2116.797866 2116.959015 2117.154220 2117.376533 2117.617565 2117.540449 2117.482001 2117.450566 2117.453052 2117.494618 2117.578441 2117.705585 2117.874942 2118.083288 2118.325421 2118.594384 2118.881783 2118.850652 2118.837887 2118.851832 2118.899392 2118.985722 2119.113997 2119.285276 2119.498447 2119.750281 2120.035567 2120.347343 2120.677207 2120.688035 2120.716865 2120.772040 2120.860466 2120.987294 2121.155700 2121.366736 2121.619288 2121.910120 2122.234016 2122.584006 2122.951678 2122.999699 2123.065304 2123.156838 2123.281206 2123.443561 2123.647076 2123.892801 2124.179619 2124.504289 2124.861588 2125.244537 2125.644715 2125.724533 2125.821472 2125.943879 2126.098663 2126.290978 2126.523997 2126.798768 2127.114172 2127.466961 2127.851906 2128.262022 2128.688876 2128.794584 2128.916914 2129.064220 2129.243412 2129.459649 2129.716105 2130.013827 2130.351693 2130.726451 2131.132866 2131.563943 2132.011241 2132.136548 2132.277954 2132.443818 2132.641060 2132.874839 2133.148332 2133.462588 2133.816480 2134.206756 2134.628171 2135.073724 2135.534966 2135.673329 2135.827255 2136.005111 2136.213822 2136.458555 2136.742488 2137.066673 2137.429980 2137.829154 2138.258945 2138.712344 2139.180893 2139.327844 2139.489701 2139.674717 2139.889707 2140.139746 2140.427940 2140.755289 2141.120644 2141.520754 2141.950411 2142.4