New loadshape.LS_PhaseA npts=17280 sinterval=5 pmult=(1404.490000 1404.328915 1404.177874 1404.042734 1403.928395 1403.838589 1403.775724 1403.740793 1403.733333 1403.751458 1403.791948 1403.850396 1403.921416 1403.783108 1403.657526 1403.550215 1403.465737 1403.407479 1403.377493 1403.376417 1403.403441 1403.456344 1403.531592 1403.624490 1403.729392 1403.622904 1403.528239 1403.450871 1403.395328 1403.364989 1403.361935 1403.386854 1403.439009 1403.516267 1403.615194 1403.731202 1403.858752 1403.775550 1403.703851 1403.649154 1403.616007 1403.607799 1403.626610 1403.673119 1403.746569 1403.844804 1403.964356 1404.100601 1404.247961 1404.183518 1404.130105 1404.093217 1404.077398 1404.086034 1404.121202 1404.183577 1404.272402 1404.385520 1404.519464 1404.669608 1404.830376 1404.778939 1404.738037 1404.713160 1404.708849 1404.728487 1404.774149 1404.846510 1404.944811 1405.066895 1405.209295 1405.367386 1405.535593 1405.491165 1405.456761 1405.437869 1405.439027 1405.463617 1405.513713 1405.589989 1405.691686 1405.816646 1405.961405 1406.121339 1406.290874 1406.247331 1406.213297 1406.194259 1406.194753 1406.218159 1406.266552 1406.340604 1406.439559 1406.561260 1406.702243 1406.857887 1407.022620 1406.973840 1406.934059 1406.908763 1406.902488 1406.918614 1406.959215 1407.024966 1407.115110 1407.227492 1407.358651 1407.503970 1407.657880 1407.597865 1407.546355 1407.508836 1407.489843 1407.492757 1407.519653 1407.571207 1407.646664 1407.743872 1407.859373 1407.988555 1408.125852 1408.048854 1407.979893 1407.924455 1407.887075 1407.871135 1407.878710 1407.910478 1407.965689 1408.042194 1408.136538 1408.244115 1408.359365 1408.260008 1408.168254 1408.089591 1408.028553 1407.988523 1407.971579 1407.978400 1408.008241 1408.058956 1408.127097 1408.208063 1408.296304 1408.171803 1408.054405 1407.949475 1407.861437 1407.793580 1407.747908 1407.725055 1407.724259 1407.743390 1407.779049 1407.826718 1407.880960 1407.715230 1407.556593 1407.410981 1407.283366 1407.177534 1407.095916 1407.039477 1407.007666 1406.998432 1407.008304 1407.032532 1407.065282 1406.893520 1406.728703 1406.575078 1406.435869 1406.313107 1406.207518 1406.118468 1406.043973 1405.980766 1405.924424 1405.869549 1405.810000 1405.514208 1405.213762 1404.914794 1404.622689 1404.341860 1404.075560 1403.825763 1403.593094 1403.376820 1403.174908 1402.984139 1402.800270 1402.412539 1402.033326 1401.668439 1401.322602 1400.999263 1400.700455 1400.426713 1400.177068 1399.949088 1399.738995 1399.541834 1399.351694 1398.942880 1398.540609 1398.150274 1397.776354 1397.422214 1397.089958 1396.780334 1396.492703 1396.225066 1395.974155 1395.735574 1395.503999 1395.061628 1394.626473 1394.204026 1393.798835 1393.414303 1393.052544 1392.714286 1392.398846 1392.104160 1391.826875 1391.562497 1391.305599 1390.836684 1390.375359 1389.927102 1389.496457 1389.086821 1388.700305 1388.337641 1387.998149 1387.679773 1387.379170 1387.091864 1386.812440 1386.321959 1385.839479 1385.370471 1384.919467 1384.489860 1384.083758 1383.701892 1383.343587 1383.006795 1382.688185 1382.383292 1382.086720 1381.580105 1381.081937 1380.597672 1380.131835 1379.687809 1379.267701 1378.872239 1378.500755 1378.151204 1377.820268 1377.503496 1377.195507 1376.678530 1376.170466 1375.676759 1375.201921 1374.749330 1374.321084 1373.917915 1373.539153 1373.182764 1372.845436 1372.522733 1372.209289 1371.687936 1371.175974 1370.678833 1370.201012 1369.745881 1369.315534 1368.910698 1368.530708 1368.173534 1367.835874 1367.513304 1367.200475 1366.680818 1366.171033 1365.676533 1365.201805 1364.750208 1364.323831 1363.923399 1363.548247 1363.196352 1362.864419 1362.548035 1362.241866 1361.729940 1361.228356 1360.742513 1360.276883 1359.834816 1359.418393 1359.028336 1358.663982 1358.323310 1358.003035 1357.698754 1357.405144 1356.906818 1356.419286 1355.947931 1355.497210 1355.070465 1354.669766 1354.295835 1353.948006 1353.624262 1353.321325 1353.034802 1352.759381 1352.278880 1351.809668 1351.357190 1350.925964 1350.519378 1350.139546 1349.787214 1349.461732 1349.161077 1348.881951 1348.619918 1348.369611 1347.919721 1347.481297 1347.059400 1346.658180 1346.280695 1345.928777 1345.602957 1345.302447 1345.025181 1344.767917 1344.526381 1344.295480 1343.855839 1343.427923 1343.017863 1342.630922 1342.271279 1341.941861 1341.644226 1341.378513 1341.143447 1340.936408 1340.753553 1340.590000 1340.238981 1339.907322 1339.599922 1339.320634 1339.072091 1338.855581 1338.670976 1338.516735 1338.389952 1338.286471 1338.201059 1338.127624 1337.846602 1337.576580 1337.322648 1337.089073 1336.879099 1336.694795 1336.536959 1336.405079 1336.297350 1336.210752 1336.141183 1336.083640 1335.828813 1335.586384 1335.361695 1335.159159 1334.982060 1334.832415 1334.710883 1334.616738 1334.547900 1334.501030 1334.471674 1334.454466 1334.235599 1334.028801 1333.839335 1333.671556 1333.528714 1333.412811 1333.324516 1333.263132 1333.226625 1333.211719 1333.214034 1333.228283 1333.042329 1332.868291 1332.711423 1332.576069 1332.465473 1332.381633 1332.325213 1332.295511 1332.290496 1332.306890 1332.340312 1332.385479 1332.230450 1332.087136 1331.960782 1331.855726 1331.775205 1331.721213 1331.694408 1331.694089 1331.718221 1331.763527 1331.825627 1331.899237 1331.772576 1331.657386 1331.558905 1331.481465 1331.428298 1331.401393 1331.401407 1331.427635 1331.478042 1331.549349 1331.637177 1331.736244 1331.634889 1331.544725 1331.470982 1331.417989 1331.388974 1331.385921 1331.409485 1331.458960 1331.532310 1331.626254 1331.736416 1331.857511 1331.777970 1331.709308 1331.656751 1331.624623 1331.616150 1331.633313 1331.676766 1331.745800 1331.838380 1331.951223 1332.079953 1332.219286 1332.157716 1332.106688 1332.071426 1332.056251 1332.064387 1332.097813 1332.157181 1332.241783 1332.349580 1332.477293 1332.620542 1332.774046 1332.726338 1332.688818 1332.666710 1332.664332 1332.684906 1332.730411 1332.801498 1332.897458 1333.016252 1333.154601 1333.308126 1333.471544 1333.433414 1333.405109 1333.391852 1333.397960 1333.426654 1333.479914 1333.558391 1333.661374 1333.786826 1333.931468 1334.090920 1334.259901 1334.228584 1334.206643 1334.199205 1334.210504 1334.243690 1334.300685 1334.382101 1334.487216 1334.613998 1334.759200 1334.918504 1335.086706 1335.048863 1335.020282 1335.006527 1335.012249 1335.040975 1335.094952 1335.175042 1335.280682 1335.409896 1335.559379 1335.724627 1335.900129 1335.881057 1335.870997 1335.874231 1335.894080 1335.932734 1335.991141 1336.068945 1336.164487 1336.274861 1336.396031 1336.522994 1336.650000 1336.557888 1336.465786 1336.379413 1336.303740 1336.242772 1336.199385 1336.175207 1336.170563 1336.184476 1336.214725 1336.257960 1336.309867 1336.166908 1336.033799 1335.916017 1335.818031 1335.743115 1335.693212 1335.668854 1335.669148 1335.691819 1335.733309 1335.788938 1335.853116 1335.710663 1335.576331 1335.455286 1335.351812 1335.269124 1335.209219 1335.172791 1335.159196 1335.166483 1335.191479 1335.229923 1335.276662 1335.122254 1334.976234 1334.843848 1334.729436 1334.636246 1334.566282 1334.520223 1334.497391 1334.495780 1334.512146 1334.542147 1334.580542 1334.416305 1334.260473 1334.118290 1333.994097 1333.891140 1333.811423 1333.755628 1333.723076 1333.711764 1333.718450 1333.738797 1333.767567 1333.593855 1333.428580 1333.276985 1333.143411 1333.031100 1332.942059 1332.876968 1332.835150 1332.814605 1332.812093 1332.823281 1332.842935 1332.660279 1332.486108 1332.325660 1332.183273 1332.062190 1331.964416 1331.890632 1331.840161 1331.811006 1331.799929 1331.802601 1331.813791 1331.622869 1331.440486 1331.271879 1331.121383 1330.992238 1330.886449 1330.804696 1330.746306 1330.709280 1330.690384 1330.685292 1330.688779 1330.490369 1330.300559 1330.124583 1329.966773 1329.830366 1329.717367 1329.628455 1329.562956 1329.518875 1329.492979 1329.480947 1329.477556 1329.272500 1329.076108 1328.893610 1328.729334 1328.586516 1328.467157 1328.371937 1328.300182 1328.249897 1328.217855 1328.199734 1328.190319 1327.979480 1327.777371 1327.589213 1327.419333 1327.270963 1327.146102 1327.045429 1326.968269 1326.912631 1326.875287 1326.851922 1326.837322 1326.621550 1326.414566 1326.221590 1326.046942 1325.893851 1325.764313 1325.659006 1325.577256 1325.517072 1325.475229 1325.447415 1325.428421 1325.207580 1324.995632 1324.797842 1324.618574 1324.461098 1324.327437 1324.218291 1324.132995 1324.069554 1324.024726 1323.994171 1323.972636 1323.752632 1323.541422 1323.344013 1323.164525 1323.006002 1322.870279 1322.757909 1322.668135 1322.598931 1322.547095 1322.508394 1322.477760 1322.242073 1322.015156 1321.802753 1321.609748 1321.439953 1321.295956 1321.179012 1321.088998 1321.024430 1320.982531 1320.959362 1320.950000 1320.749852 1320.563515 1320.395895 1320.250917 1320.131339 1320.038632 1319.972902 1319.932878 1319.915963 1319.918332 1319.935096 1319.960505 1319.781180 1319.609804 1319.451419 1319.310233 1319.189424 1319.090997 1319.015693 1318.962945 1318.930910 1318.916540 1318.915719 1318.923445 1318.733335 1318.552006 1318.384671 1318.235638 1318.108119 1318.004083 1317.924177 1317.867691 1317.832596 1317.815627 1317.812432 1317.817763 1317.622206 1317.435110 1317.261636 1317.106053 1316.971550 1316.860088 1316.772323 1316.707566 1316.663824 1316.637876 1316.625425 1316.621280 1316.417255 1316.221523 1316.039237 1315.874662 1315.730981 1315.610156 1315.512838 1315.438342 1315.384673 1315.348619 1315.325884 1315.311286 1315.096904 1314.890646 1314.697660 1314.522205 1314.367460 1314.235383 1314.126626 1314.040504 1313.975026 1313.926982 1313.892085 1313.865159 1313.638568 1313.419938 1313.214411 1313.026238 1312.858596 1312.713440 1312.591421 1312.491856 1312.412758 1312.350921 1312.302064 1312.261021 1312.020463 1311.787712 1311.567902 1311.365281 1311.183020 1311.023072 1310.886087 1310.771385 1310.676983 1310.599680 1310.535204 1310.478396 1310.222261 1309.973791 1309.738115 1309.519475 1309.321037 1309.144753 1308.991274 1308.859920 1308.748713 1308.654460 1308.572896 1308.498873 1308.225749 1307.960169 1307.707254 1307.471239 1307.255287 1307.061348 1306.890072 1306.740783 1306.611507 1306.499059 1306.399183 1306.306743 1306.015475 1305.731653 1305.460387 1305.205908 1304.971375 1304.758735 1304.568640 1304.400415 1304.252093 1304.120497 1304.001380 1303.889618 1303.579355 1303.276464 1302.986048 1302.712331 1302.458469 1302.226405 1302.016793 1301.828963 1301.660951 1301.509590 1301.370645 1301.239003 1300.910887 1300.590011 1300.281376 1299.989113 1299.716297 1299.464814 1299.235277 1299.027004 1298.838048 1298.665282 1298.504541 1298.350811 1297.995514 1297.647701 1297.312808 1296.995386 1296.698895 1296.425549 1296.176220 1295.950390 1295.746176 1295.560398 1295.388716 1295.225811 1294.873957 1294.529710 1294.197185 1293.879558 1293.578912 1293.296125 1293.030818 1292.781354 1292.544900 1292.317536 1292.094420 1291.870000 1291.432349 1290.993468 1290.558934 1290.133606 1289.721420 1289.325227 1288.946682 1288.586185 1288.242886 1287.914736 1287.598598 1287.290407 1286.794759 1286.308379 1285.836580 1285.383700 1284.952918 1284.546125 1284.163852 1283.805253 1283.468152 1283.149137 1282.843722 1282.546544 1282.050777 1281.562922 1281.087964 1280.630040 1280.192260 1279.776569 1279.383658 1279.012942 1278.662581 1278.329565 1278.009848 1277.698527 1277.195164 1276.700406 1276.219306 1275.756050 1275.313773 1274.894422 1274.498674 1274.125906 1273.774228 1273.440566 1273.120798 1272.809946 1272.306439 1271.811970 1271.331577 1270.869435 1270.428670 1270.011225 1269.617775 1269.247699 1268.899115 1268.568956 1268.253116 1267.946629 1267.448521 1266.959889 1266.485757 1266.030289 1265.596600 1265.186628 1264.801046 1264.439236 1264.099320 1263.778241 1263.471905 1263.175360 1262.688211 1262.210974 1261.748658 1261.305412 1260.884346 1260.487389 1260.115212 1259.767200 1259.441478 1259.134997 1258.843673 1258.562569 1258.091848 1257.631463 1257.186407 1256.760818 1256.357794 1255.979260 1255.625883 1255.297049 1254.990886 1254.704353 1254.433376 1254.173027 1253.724002 1253.285716 1252.863147 1252.460421 1252.080627 1251.725682 1251.396250 1251.091716 1250.810212 1250.548702 1250.303121 1250.068552 1249.646185 1249.234932 1248.839755 1248.464769 1248.113053 1247.786516 1247.485819 1247.210346 1246.958231 1246.726445 1246.510925 1246.306767 1245.915613 1245.535910 1245.172608 1244.829809 1244.510580 1244.216827 1243.949204 1243.707094 1243.488632 1243.290792 1243.109519 1242.939912 1242.584024 1242.239882 1241.912421 1241.605732 1241.322873 1241.065740 1240.834987 1240.629991 1240.448889 1240.288657 1240.145244 1240.013754 1239.695294 1239.388892 1239.099548 1238.831407 1238.587581 1238.370003 1238.179352 1238.015017 1237.875127 1237.756633 1237.655440 1237.566590 1237.295657 1237.036769 1236.794560 1236.572828 1236.374366 1236.200840 1236.052721 1235.929266 1235.828558 1235.747597 1235.682437 1235.628377 1235.383017 1235.149748 1234.934238 1234.741356 1234.574975 1234.437812 1234.331323 1234.255654 1234.209644 1234.190884 1234.195837 1234.220000 1234.072808 1233.944822 1233.840532 1233.763460 1233.715999 1233.699295 1233.713188 1233.756209 1233.825627 1233.917560 1234.027128 1234.148657 1234.079034 1234.020373 1233.977356 1233.953904 1233.953000 1233.976543 1234.025260 1234.098667 1234.195087 1234.311723 1234.444772 1234.589599 1234.552638 1234.527748 1234.519857 1234.533034 1234.570304 1234.633518 1234.723270 1234.838871 1234.978379 1235.138681 1235.315635 1235.504248 1235.506343 1235.519957 1235.549950 1235.600341 1235.674126 1235.773146 1235.898006 1236.048042 1236.221354 1236.414886 1236.624558 1236.845449 1236.880677 1236.927042 1236.989400 1237.071770 1237.177144 1237.307363 1237.463027 1237.643470 1237.846790 1238.069924 1238.308787 1238.558454 1238.621926 1238.696108 1238.785859 1238.895194 1239.027107 1239.183437 1239.364782 1239.570473 1239.798604 1240.046109 1240.308898 1240.582037 1240.668380 1240.764973 1240.876676 1241.007507 1241.160459 1241.337370 1241.538838 1241.764192 1242.011522 1242.277757 1242.558804 1242.849721 1242.953186 1243.066416 1243.194274 1243.340779 1243.508929 1243.700559 1243.916268 1244.155384 1244.415992 1244.695020 1244.988367 1245.291088 1245.405662 1245.529501 1245.667471 1245.823596 1246.000874 1246.201144 1246.425003 1246.671779 1246.939555 1247.225255 1247.524773 1247.833160 1247.952685 1248.080969 1248.222882 1248.382452 1248.562681 1248.765411 1248.991239 1249.239492 1249.508252 1249.794440 1250.093947 1250.401819 1250.520110 1250.646657 1250.786336 1250.943181 1251.120196 1251.319226 1251.540871 1251.784457 1252.048066 1252.328616 1252.621996 1252.923246 1253.034214 1253.152946 1253.284328 1253.432396 1253.600163 1253.789474 1254.000933 1254.233867 1254.486356 1254.755318 1255.036639 1255.325357 1255.424859 1255.531566 1255.650268 1255.784918 1255.938454 1256.112664 1256.308114 1256.524116 1256.758758 1257.008993 1257.270768 1257.539204 1257.611966 1257.691763 1257.783865 1257.892680 1258.021561 1258.172653 1258.346791 1258.543462 1258.760816 1258.995740 1259.243980 1259.500322 1259.573226 1259.652875 1259.743155 1259.847041 1259.966442 1260.102100 1260.253532 1260.419042 1260.595773 1260.779819 1260.966387 1261.150000 1261.123475 1261.093954 1261.066886 1261.047036 1261.038281 1261.043451 1261.064217 1261.101030 1261.153122 1261.218552 1261.294316 1261.376493 1261.274711 1261.180618 1261.099404 1261.035295 1260.991382 1260.969485 1260.970092 1260.992338 1261.034048 1261.091838 1261.161262 1261.237016 1261.116056 1261.000972 1260.896621 1260.807033 1260.735235 1260.683113 1260.651326 1260.639284 1260.645165 1260.665999 1260.697795 1260.735726 1260.582909 1260.436341 1260.300968 1260.180885 1260.079154 1259.997672 1259.937087 1259.896768 1259.874837 1259.868248 1259.872925 1259.883945 1259.702690 1259.527811 1259.364253 1259.216113 1259.086455 1258.977177 1258.888929 1258.821083 1258.771766 1258.737936 1258.715522 1258.699607 1258.491704 1258.290343 1258.100468 1257.926176 1257.770530 1257.635431 1257.521530 1257.428203 1257.353578 1257.294620 1257.247263 1257.206595 1256.974297 1256.748741 1256.534868 1256.336774 1256.157522 1255.999014 1255.861900 1255.745560 1255.648127 1255.566568 1255.496824 1255.433990 1255.179946 1254.932871 1254.697704 1254.478537 1254.278435 1254.099295 1253.941772 1253.805246 1253.687852 1253.586565 1253.497331 1253.415251 1253.142432 1252.876832 1252.623386 1252.386183 1252.168283 1251.971586 1251.796743 1251.643139 1251.508911 1251.391038 1251.285473 1251.187324 1250.898950 1250.618061 1250.349587 1250.097612 1249.865194 1249.654228 1249.465368 1249.297998 1249.150260 1249.019136 1248.900586 1248.789724 1248.489186 1248.196407 1247.916313 1247.652981 1247.409465 1247.187659 1246.988215 1246.810518 1246.652713 1246.511787 1246.383704 1246.263587 1245.954363 1245.653178 1245.364947 1245.093744 1244.842617 1244.613457 1244.406915 1244.222376 1244.057987 1243.910740 1243.776605 1243.650711 1243.335434 1243.028516 1242.734916 1242.458743 1242.203080 1241.969844 1241.759705 1241.572057 1241.405044 1241.255645 1241.119804 1240.992616 1240.679510 1240.374896 1240.083493 1239.809180 1239.554830 1239.322184 1239.111777 1238.922918 1238.753724 1238.601208 1238.461420 1238.329627 1238.006170 1237.691405 1237.390724 1237.108712 1236.848951 1236.613873 1236.404661 1236.221209 1236.062136 1235.924849 1235.805669 1235.700000 1235.416172 1235.145903 1234.893807 1234.663578 1234.457824 1234.277939 1234.124045 1233.994976 1233.888319 1233.800516 1233.727012 1233.662446 1233.407126 1233.160145 1232.926237 1232.709357 1232.512498 1232.337549 1232.185215 1232.054982 1231.945135 1231.852834 1231.774239 1231.704682 1231.451024 1231.206660 1230.976481 1230.764534 1230.573834 1230.406241 1230.262369 1230.141571 1230.041960 1229.960496 1229.893119 1229.834935 1229.590069 1229.354369 1229.132677 1228.929000 1228.746331 1228.586520 1228.450188 1228.336705 1228.244218 1228.169726 1228.109220 1228.057859 1227.820948 1227.593197 1227.379438 1227.183672 1227.008886 1226.856924 1226.728406 1226.622701 1226.537956 1226.471173 1226.418348 1226.374643 1226.145631 1225.925751 1225.719827 1225.531851 1225.364804 1225.220527 1225.099638 1225.001505 1224.924274 1224.864952 1224.819537 1224.783198 1224.561769 1224.349422 1224.150974 1223.970409 1223.810705 1223.673696 1223.560000 1223.468982 1223.398792 1223.346439 1223.307923 1223.278420 1223.064018 1222.858631 1222.667067 1222.493305 1222.340316 1222.209933 1222.102769 1222.018191 1221.954349 1221.908255 1221.875913 1221.852504 1221.644365 1221.445159 1221.259685 1221.091916 1220.944819 1220.820223 1220.718740 1220.639736 1220.581363 1220.540634 1220.513561 1220.495327 1220.292513 1220.098536 1219.918189 1219.755438 1219.613247 1219.493440 1219.396629 1219.322180 1219.268245 1219.231843 1219.208986 1219.194866 1218.996302 1218.806469 1218.630155 1218.471320 1218.332923 1218.216787 1218.123521 1218.052492 1218.001855 1217.968629 1217.948835 1217.937667 1217.742179 1217.555312 1217.381846 1217.225737 1217.089940 1216.976275 1216.885350 1216.816533 1216.767981 1216.736718 1216.718766 1216.709328 1216.516618 1216.332366 1216.161292 1216.007300 1215.873296 1215.761068 1215.671200 1215.603053 1215.554788 1215.523454 1215.505110 1215.495012 1215.298632 1215.110739 1214.936303 1214.779462 1214.643340 1214.529909 1214.439898 1214.372760 1214.326692 1214.298710 1214.284772 1214.279959 1214.095838 1213.920152 1213.757122 1213.610110 1213.481462 1213.372392 1213.282923 1213.211873 1213.156902 1213.114604 1213.080656 1213.050000 1212.826118 1212.605542 1212.393320 1212.193767 1212.010277 1211.845180 1211.699649 1211.573654 1211.465974 1211.374260 1211.295150 1211.224427 1210.974852 1210.734378 1210.507905 1210.299454 1210.111989 1209.947298 1209.805918 1209.687111 1209.588904 1209.508178 1209.440803 1209.381826 1209.137468 1208.901290 1208.678005 1208.471522 1208.284767 1208.119559 1207.976525 1207.855073 1207.753422 1207.668676 1207.596953 1207.533558 1207.288247 1207.051346 1206.827611 1206.620977 1206.434388 1206.269662 1206.127419 1206.007046 1205.906732 1205.823543 1205.753553 1205.692021 1205.447979 1205.212429 1204.990118 1204.784978 1204.599949 1204.436849 1204.296294 1204.177674 1204.079181 1203.997884 1203.929863 1203.870386 1203.628734 1203.395658 1203.175899 1202.973385 1202.791051 1202.630713 1202.492987 1202.377264 1202.281737 1202.203482 1202.138582 1202.082310 1201.844197 1201.614745 1201.398691 1201.199955 1201.021469 1200.865048 1200.731307 1200.619638 1200.528236 1200.454180 1200.393559 1200.341652 1200.108229 1199.883551 1199.672350 1199.478541 1199.305053 1199.153697 1199.025088 1198.918619 1198.832486 1198.763772 1198.708572 1198.662169 1198.434564 1198.215786 1198.010561 1197.822800 1197.655427 1197.510252 1197.387888 1197.287728 1197.207971 1197.145703 1197.097023 1197.057219 1196.836514 1196.624713 1196.426536 1196.245890 1196.085696 1195.947760 1195.832695 1195.739894 1195.667558 1195.612776 1195.571649 1195.539473 1195.326676 1195.122856 1194.932725 1194.760185 1194.608155 1194.478437 1194.371643 1194.287167 1194.223212 1194.176866 1194.144239 1194.120626 1193.916655 1193.721723 1193.540538 1193.376998 1193.234015 1193.113391 1193.015737 1192.940447 1192.885723 1192.848659 1192.825364 1192.811140 1192.616681 1192.431320 1192.259766 1192.105919 1191.972694 1191.861893 1191.774129 1191.708797 1191.664100 1191.637130 1191.623996 1191.619998 1191.436367 1191.261857 1191.101143 1190.958088 1190.835577 1190.735387 1190.658112 1190.603134 1190.568654 1190.551769 1190.548604 1190.554484 1190.380063 1190.214786 1190.063414 1189.929903 1189.817232 1189.727270 1189.660696 1189.616971 1189.594365 1189.590029 1189.600126 1189.620000 1189.461480 1189.312745 1189.178449 1189.062424 1188.967516 1188.895450 1188.846763 1188.820772 1188.815607 1188.828288 1188.854862 1188.890571 1188.746237 1188.610956 1188.489395 1188.385418 1188.301922 1188.240699 1188.202362 1188.186316 1188.190785 1188.212889 1188.248770 1188.293765 1188.159648 1188.034676 1187.923533 1187.830097 1187.757265 1187.706823 1187.679371 1187.674297 1187.689800 1187.722974 1187.769931 1187.825979 1187.702569 1187.588240 1187.487667 1187.404721 1187.342292 1187.302167 1187.284944 1187.290014 1187.315580 1187.358740 1187.415615 1187.481520 1187.368101 1187.263705 1187.173003 1187.099865 1187.047178 1187.016727 1187.009112 1187.023719 1187.058754 1187.111315 1187.177521 1187.252689 1187.148527 1187.053315 1186.971725 1186.907623 1186.863896 1186.842326 1186.843511 1186.866840 1186.910517 1186.971638 1187.046326 1187.129895 1187.034103 1186.947179 1186.873792 1186.817807 1186.782109 1186.768480 1186.777518 1186.808608 1186.859955 1186.928657 1187.010834 1187.101804 1187.013359 1186.933690 1186.867464 1186.818544 1186.789814 1186.783055 1186.798864 1186.836628 1186.894548 1186.969724 1187.058277 1187.155522 1187.073282 1186.999716 1186.939490 1186.896467 1186.873529 1186.872458 1186.893847 1186.937084 1187.000372 1187.080809 1187.174515 1187.276808 1187.199528 1187.130814 1187.075331 1187.036940 1187.018524 1187.021861 1187.047548 1187.094970 1187.162331 1187.246728 1187.344281 1187.450308 1187.376664 1187.311473 1187.259398 1187.224299 1187.209059 1187.215458 1187.244089 1187.294339 1187.364410 1187.451401 1187.551431 1187.659819 1187.588429 1187.525375 1187.475319 1187.442120 1187.428663 1187.436724 1187.466900 1187.518574 1187.589952 1187.678129 1187.779227 1187.888563 1187.818448 1187.756524 1187.707432 1187.675007 1187.662112 1187.670509 1187.700784 1187.752318 1187.823316 1187.910885 1188.011161 1188.119483 1188.046780 1187.982219 1187.930553 1187.895734 1187.880727 1187.887381 1187.916350 1187.967057 1188.037723 1188.125439 1188.226292 1188.335536 1188.266853 1188.206222 1188.158049 1188.125924 1188.112449 1188.119121 1188.146262 1188.193000 1188.257303 1188.336063 1188.425232 1188.520000 1188.430174 1188.345935 1188.272079 1188.212644 1188.170722 1188.148335 1188.146343 1188.164411 1188.201029 1188.253584 1188.318474 1188.391282 1188.286064 1188.189079 1188.105057 1188.037898 1187.990497 1187.964621 1187.960834 1187.978470 1188.015668 1188.069450 1188.135857 1188.210122 1188.103166 1188.003948 1187.917116 1187.846518 1187.795033 1187.764444 1187.755355 1187.767170 1187.798117 1187.845321 1187.904937 1187.972319 1187.859963 1187.755395 1187.663281 1187.587486 1187.530896 1187.495295 1187.481285 1187.488261 1187.514433 1187.556910 1187.611825 1187.674507 1187.557052 1187.447364 1187.350110 1187.269153 1187.207380 1187.166574 1187.147338 1187.149064 1187.169967 1187.207156 1187.256764 1187.314124 1187.191393 1187.076416 1186.973856 1186.887577 1186.820464 1186.774301 1186.749688 1186.746022 1186.761516 1186.793280 1186.837450 1186.889361 1186.761241 1186.640864 1186.532894 1186.441191 1186.368641 1186.317026 1186.286949 1186.277803 1186.287805 1186.314066 1186.352725 1186.399116 1186.265549 1186.139720 1186.026289 1185.929117 1185.851088 1185.793983 1185.758405 1185.743749 1185.748230 1185.768963 1185.802088 1185.842942 1185.703923 1185.572640 1185.453752 1185.351116 1185.267616 1185.205033 1185.163968 1185.143819 1185.142801 1185.158030 1185.185648 1185.220995 1185.076567 1184.939876 1184.815579 1184.707532 1184.618616 1184.550612 1184.504122 1184.478542 1184.472090 1184.481883 1184.504065 1184.533981 1184.384230 1184.242220 1184.112607 1183.999243 1183.905008 1183.831684 1183.779869 1183.748963 1183.737183 1183.741649 1183.758507 1183.783104 1183.628156 1183.480956 1183.346157 1183.227610 1183.128192 1183.049683 1182.992684 1182.956592 1182.939628 1182.938911 1182.950593 1182.970022 1182.810180 1182.658088 1182.518388 1182.394920 1182.290554 1182.207064 1182.145046 1182.103897 1182.081839 1182.075999 1182.082532 1182.096800 1181.931464 1181.773911 1181.628818 1181.500060 1181.390539 1181.302055 1181.235226 1181.189464 1181.162997 1181.152948 1181.155461 1181.165871 1180.997874 1180.837683 1180.689858 1180.558152 1180.445348 1180.353129 1180.282005 1180.231291 1180.199135 1180.182597 1180.177779 1180.180000 1180.001837 1179.830728 1179.671355 1179.527617 1179.402453 1179.297714 1179.214086 1179.151060 1179.106954 1179.078991 1179.063424 1179.055701 1178.869933 1178.692132 1178.526955 1178.378252 1178.248895 1178.140652 1178.054111 1177.988656 1177.942491 1177.912725 1177.895494 1177.886139 1177.697901 1177.517521 1177.349622 1177.198035 1177.065625 1176.954162 1176.864248 1176.795288 1176.745519 1176.712083 1176.691158 1176.678127 1176.486903 1176.303601 1176.132847 1175.978473 1175.843343 1175.729228 1175.636727 1175.565243 1175.513008 1175.477161 1175.453876 1175.438532 1175.245072 1175.059572 1174.886656 1174.730152 1174.592920 1174.476729 1174.382179 1174.308671 1174.254440 1174.216628 1174.191412 1174.174176 1173.979044 1173.791911 1173.617395 1173.459321 1173.320547 1173.202838 1173.106794 1173.031817 1172.976143 1172.936917 1172.910320 1172.891739 1172.695485 1172.507266 1172.331697 1172.172597 1172.032821 1171.914135 1171.817135 1171.741225 1171.684641 1171.644533 1171.617083 1171.597684 1171.400835 1171.212057 1171.035957 1170.876353 1170.736095 1170.616947 1170.519504 1170.443172 1170.386188 1170.345703 1170.317905 1170.298190 1170.101248 1169.912408 1169.736274 1169.576658 1169.436408 1169.317286 1169.219887 1169.143615 1169.086711 1169.046327 1169.018655 1168.999096 1168.802531 1168.614097 1168.438393 1168.279228 1168.139446 1168.020806 1167.923904 1167.848143 1167.791766 1167.751929 1167.724826 1167.705864 1167.510112 1167.322518 1167.147676 1166.989389 1166.850501 1166.732766 1166.636781 1166.561948 1166.506513 1166.467633 1166.441508 1166.423547 1166.229011 1166.042656 1165.869072 1165.712058 1165.574453 1165.458012 1165.363328 1165.289806 1165.235692 1165.198147 1165.173373 1165.156784 1164.964191 1164.779781 1164.608118 1164.452977 1164.317179 1164.202463 1164.109413 1164.037431 1163.984766 1163.948589 1163.925120 1163.909794 1163.717456 1163.533375 1163.362207 1163.207817 1163.073108 1162.959890 1162.868802 1162.799282 1162.749594 1162.716896 1162.697371 1162.686390 1162.501254 1162.324412 1162.160227 1162.012262 1161.883114 1161.774299 1161.686181 1161.617952 1161.567667 1161.532324 1161.507994 1161.490000 1161.292599 1161.101552 1160.921543 1160.756499 1160.609424 1160.482264 1160.375828 1160.289756 1160.222536 1160.171576 1160.133323 1160.103426 1159.899828 1159.704876 1159.523192 1159.358589 1159.213900 1159.090863 1158.990038 1158.910790 1158.851317 1158.808729 1158.779177 1158.758025 1158.560766 1158.371834 1158.195777 1158.036363 1157.896409 1157.777661 1157.680715 1157.604992 1157.548765 1157.509230 1157.482636 1157.464449 1157.271606 1157.087213 1156.915828 1156.761229 1156.626237 1156.512598 1156.420904 1156.350567 1156.299848 1156.265930 1156.245046 1156.232644 1156.045452 1155.866764 1155.701135 1155.552338 1155.423190 1155.315437 1155.229667 1155.165296 1155.120583 1155.092714 1155.077925 1155.071668 1154.890833 1154.718548 1154.559366 1154.417054 1154.294429 1154.193231 1154.114051 1154.056302 1154.018245 1153.997068 1153.989010 1153.989525 1153.815656 1153.650377 1153.498236 1153.362996 1153.247471 1153.153401 1153.081373 1153.030802 1152.999949 1152.986004 1152.985207 1152.993017 1152.826618 1152.668840 1152.524225 1152.396536 1152.288581 1152.202098 1152.137676 1152.094726 1152.071512 1152.065226 1152.072108 1152.087621 1151.929081 1151.779182 1151.642464 1151.522685 1151.422651 1151.344099 1151.287615 1151.252612 1151.237354 1151.239032 1151.253891 1151.277393 1151.126977 1150.985213 1150.856638 1150.745005 1150.653121 1150.582717 1150.534381 1150.507524 1150.500410 1150.510233 1150.533239 1150.564892 1150.422738 1150.289238 1150.168924 1150.065547 1149.981910 1149.919744 1149.879636 1149.860995 1149.862088 1149.880108 1149.911301 1149.951135 1149.817253 1149.692016 1149.579952 1149.484809 1149.409389 1149.355422 1149.323492 1149.313009 1149.322239 1149.348377 1149.387670 1149.435587 1149.309835 1149.192710 1149.088737 1149.001664 1148.934292 1148.888350 1148.864421 1148.861916 1148.879100 1148.913169 1148.9