New Line.263534306 Phases= 1 Bus1=263534303.2     Bus2=258907881.2     Length=100.10 units=m  Spacing=VERTICAL-1-PH-60-1PH wires=['2-ACSR-B-6X1' '6-CU-WP-7']
New Line.699645089 Phases= 1 Bus1=258904263.2     Bus2=699645087.2     Length=41.07  units=m  Spacing=VERTICAL-1-PH-60-1PH wires=['2-ACSR-B-6X1' '2-CU-B-7']
New Line.260761331 Bus1=260761328.1     Bus2=260761333.1     LineCode=1/0-AL-HMWPECN-15KV Phases= 1 Length=81.46  units=m enable=yes
New Line.263533221 Phases= 2 Bus1=258904718.1.2   Bus2=263533223.1.2   Length=1.52   units=m  Spacing=8'-ARM-STANDARD-2PH wires=['2-ACSR-B-6X1' '2-ACSR-B-6X1' '1/0-ACSR-B-6X1']
New Line.699603586 Phases= 3 Bus1=258903955.1.2.3 Bus2=699603584.1.2.3 Length=20.38  units=m  Spacing=8'-ARM-NON-CENTER-POST-3PH wires=['2-ACSR-B-6X1' '2-ACSR-B-6X1' '2-ACSR-B-6X1' '1/0-ACSR-B-6X1']
New Line.263533230 Bus1=258904747.1.2.3 Bus2=263533232.1.2.3 LineCode=1/0-AL-HMWPECN-15KV Phases= 3 Length=1.53   units=m enable=yes
New Line.263534356 Phases= 3 Bus1=258908181.1.2.3 Bus2=263534358.1.2.3 Length=1.53   units=m  Spacing=8'-ARM-NON-CENTER-POST-3PH wires=['336-ACSR-WP-18X1' '336-ACSR-WP-18X1' '336-ACSR-WP-18X1' '336-ACSR-B-18X1']
New Line.258904546 Phases= 1 Bus1=258904543.1     Bus2=258904548.1     Length=52.19  units=m  Spacing=VERTICAL-1-PH-60-1PH wires=['2-ACSR-B-6X1' '1/0-ACSR-B-6X1']
New Line.258896520 Phases= 3 Bus1=258896517.1.2.3 Bus2=258896522.1.2.3 Length=56.39  units=m  Spacing=8'-ARM-STANDARD-3PH wires=['336-AAC-B-19' '336-AAC-B-19' '336-AAC-B-19' '1/0-ACSR-B-6X1']
New Line.699625645 Phases= 3 Bus1=699625642.1.2.3 Bus2=258904343.1.2.3 Length=26.13  units=m  Spacing=8'-ARM-NON-CENTER-POST-3PH wires=['2-ACSR-B-6X1' '2-ACSR-B-6X1' '2-ACSR-B-6X1' '1/0-ACSR-B-6X1']
New Line.258908218 Phases= 1 Bus1=258908215.2     Bus2=258908220.2     Length=28.93  units=m  Spacing=VERTICAL-1-PH-60-1PH wires=['4-CU-WP-7' '4-CU-WP-7']
New Line.264495209 Phases= 3 Bus1=258896306.1.2.3 Bus2=264495211.1.2.3 Length=1.53   units=m  Spacing=8'-ARM-NON-CENTER-POST-3PH wires=['336-ACSR-B-18X1' '336-ACSR-B-18X1' '336-ACSR-B-18X1' '336-ACSR-B-18X1']
New Line.259157436 Phases= 1 Bus1=258904772.2     Bus2=258904783.2     Length=47.68  units=m  Spacing=VERTICAL-1-PH-60-1PH wires=['2-ACSR-B-6X1' '1/0-ACSR-B-6X1']
New Line.699645956 Phases= 1 Bus1=258904528.1     Bus2=699645954.1     Length=47.99  units=m  Spacing=VERTICAL-1-PH-60-1PH wires=['2-ACSR-B-6X1' '1/0-ACSR-B-6X1']
New Line.258908398 Phases= 1 Bus1=258908395.1     Bus2=258908400.1     Length=29.69  units=m  Spacing=VERTICAL-1-PH-60-1PH wires=['4-CU-WP-7' '2-CU-WP-7']
New Line.263530669 Phases= 3 Bus1=263530666.1.2.3 Bus2=258908462.1.2.3 Length=55.04  units=m  Spacing=8'-ARM-NON-CENTER-POST-3PH wires=['1/0-ACSR-WP-6X1' '1/0-ACSR-WP-6X1' '1/0-ACSR-WP-6X1' '1/0-ACSR-B-6X1']
New Line.263530682 Bus1=258896517.1     Bus2=263530684.1     LineCode=1/0-AL-HMWPECN-15KV Phases= 1 Length=1.53   units=m enable=yes
New Line.258904123 Phases= 3 Bus1=258904120.1.2.3 Bus2=258904125.1.2.3 Length=25.58  units=m  Spacing=8'-ARM-STANDARD-3PH wires=['2-ACSR-B-6X1' '2-ACSR-B-6X1' '2-ACSR-B-6X1' '1/0-ACSR-B-6X1']
New Line.263682010 Phases= 3 Bus1=263682007.1.2.3 Bus2=258903995.1.2.3 Length=43.66  units=m  Spacing=8'-ARM-NON-CENTER-POST-3PH wires=['2-ACSR-B-6X1' '2-ACSR-B-6X1' '2-ACSR-B-6X1' '1/0-ACSR-B-6X1']
New Line.263533001 Bus1=263532998.2     Bus2=260761071.2     LineCode=1/0-AL-HMWPECN-15KV Phases= 1 Length=51.75  units=m enable=yes
New Line.258896383 Phases= 3 Bus1=258896378.1.2.3 Bus2=258896385.1.2.3 Length=30.95  units=m  Spacing=8'-ARM-NON-CENTER-POST-3PH wires=['336-ACSR-WP-18X1' '336-ACSR-WP-18X1' '336-ACSR-WP-18X1' '336-ACSR-B-18X1']
New Line.263533167 Phases= 1 Bus1=258903838.3     Bus2=263533169.3     Length=1.52   units=m  Spacing=VERTICAL-1-PH-60-1PH wires=['2-ACSR-B-6X1' '2-ACSR-B-6X1']
New Line.458944742 Phases= 3 Bus1=458944739.1.2.3 Bus2=258896400.1.2.3 Length=17.74  units=m  Spacing=8'-ARM-NON-CENTER-POST-3PH wires=['336-ACSR-WP-18X1' '336-ACSR-WP-18X1' '336-ACSR-WP-18X1' '336-ACSR-B-18X1']
New Line.263642066 Phases= 3 Bus1=263642063.1.2.3 Bus2=258896333.1.2.3 Length=33.70  units=m  Spacing=8'-ARM-STANDARD-3PH wires=['1/0-ACSR-B-6X1' '1/0-ACSR-B-6X1' '1/0-ACSR-B-6X1' '1/0-ACSR-B-6X1']
New Line.263532843 Phases= 1 Bus1=258903785.3     Bus2=263532845.3     Length=1.52   units=m  Spacing=VERTICAL-1-PH-60-1PH wires=['6-CU-WP-7' '6-CU-WP-7']
New Line.263532992 Bus1=263532989.1     Bus2=260761081.1     LineCode=1/0-AL-HMWPECN-15KV Phases= 1 Length=85.21  units=m enable=yes
New Line.258896479 Phases= 3 Bus1=258896469.1.2.3 Bus2=258896481.1.2.3 Length=20.54  units=m  Spacing=8'-ARM-STANDARD-3PH wires=['336-ACSR-B-18X1' '336-ACSR-B-18X1' '336-ACSR-B-18X1' '336-ACSR-B-18X1']
New Line.699625241 Phases= 1 Bus1=699625238.2     Bus2=258904323.2     Length=14.27  units=m  Spacing=VERTICAL-1-PH-60-1PH wires=['2-ACSR-B-6X1' '1/0-ACSR-B-6X1']
New Line.258903913 Phases= 3 Bus1=258903910.1.2.3 Bus2=258903915.1.2.3 Length=30.54  units=m  Spacing=8'-ARM-NON-CENTER-POST-3PH wires=['336-AAC-B-19' '336-AAC-B-19' '336-AAC-B-19' '1/0-ACSR-B-6X1']
New Line.259365161 Phases= 1 Bus1=258907713.3     Bus2=259365163.3     Length=21.52  units=m  Spacing=VERTICAL-1-PH-104-1PH wires=['2-ACSR-B-6X1' '2-ACSR-B-6X1']
New Line.263533131 Bus1=258904488.1     Bus2=263533133.1     LineCode=1/0-AL-TRXLPELCJ-15KV Phases= 1 Length=1.53   units=m enable=yes
New Line.633960092 Phases= 3 Bus1=258896573.1.2.3 Bus2=633960094.1.2.3 Length=29.06  units=m  Spacing=8'-ARM-STANDARD-3PH wires=['1/0-ACSR-B-6X1' '1/0-ACSR-B-6X1' '1/0-ACSR-B-6X1' '1/0-ACSR-B-6X1']
New Line.258908298 Phases= 1 Bus1=258908295.2     Bus2=258908300.2     Length=69.83  units=m  Spacing=VERTICAL-1-PH-60-1PH wires=['2-ACSR-B-6X1' '2-CU-WP-7']
New Line.274925127 Phases= 3 Bus1=274925125.1.2.3 Bus2=258896603.1.2.3 Length=29.66  units=m  Spacing=8'-ARM-NON-CENTER-POST-3PH wires=['2-ACSR-B-6X1' '2-ACSR-B-6X1' '2-ACSR-B-6X1' '1/0-ACSR-B-6X1']
New Line.258904476 Phases= 3 Bus1=258904471.1.2.3 Bus2=258904478.1.2.3 Length=29.00  units=m  Spacing=8'-ARM-NON-CENTER-POST-3PH wires=['1/0-ACSR-B-6X1' '1/0-ACSR-B-6X1' '1/0-ACSR-B-6X1' '1/0-ACSR-B-6X1']
New Line.263642061 Phases= 3 Bus1=258896328.1.2.3 Bus2=263642063.1.2.3 Length=1.52   units=m  Spacing=8'-ARM-STANDARD-3PH wires=['1/0-ACSR-B-6X1' '1/0-ACSR-B-6X1' '1/0-ACSR-B-6X1' '1/0-ACSR-B-6X1']
New Line.258904169 Phases= 1 Bus1=258904166.3     Bus2=258904171.3     Length=13.22  units=m  Spacing=VERTICAL-1-PH-60-1PH wires=['2-ACSR-B-6X1' '1/0-ACSR-B-6X1']
New Line.258904336 Phases= 1 Bus1=258904333.2     Bus2=258904338.2     Length=40.63  units=m  Spacing=VERTICAL-1-PH-60-1PH wires=['2-ACSR-B-6X1' '1/0-ACSR-B-6X1']
New Line.258908054 Phases= 3 Bus1=258908055.1.2.3 Bus2=258908056.1.2.3 Length=24.47  units=m  Spacing=8'-ARM-NON-CENTER-POST-3PH wires=['2-ACSR-B-6X1' '2-ACSR-B-6X1' '2-ACSR-B-6X1' '1/0-ACSR-B-6X1']
New Line.699625515 Phases= 3 Bus1=699625512.1.2.3 Bus2=258904391.1.2.3 Length=29.28  units=m  Spacing=8'-ARM-NON-CENTER-POST-3PH wires=['2-ACSR-B-6X1' '2-ACSR-B-6X1' '2-ACSR-B-6X1' '2-ACSR-B-6X1']
New Line.258908353 Phases= 1 Bus1=258908350.1     Bus2=258908355.1     Length=17.16  units=m  Spacing=VERTICAL-1-PH-60-1PH wires=['4-CU-WP-7' '4-CU-WP-7']
New Line.258907975 Phases= 1 Bus1=258907972.2     Bus2=258907977.2     Length=34.45  units=m  Spacing=VERTICAL-1-PH-60-1PH wires=['4-ACSR-B-6X1' '2-CU-B-7']
New Line.258908293 Phases= 1 Bus1=258908290.2     Bus2=258908295.2     Length=81.25  units=m  Spacing=VERTICAL-1-PH-60-1PH wires=['4-CU-WP-7' '1/0-ACSR-B-6X1']
New Line.699645828 Phases= 1 Bus1=699645825.3     Bus2=258904651.3     Length=56.52  units=m  Spacing=VERTICAL-1-PH-60-1PH wires=['4-CU-B-7' '2-CU-B-7']
New Line.258908323 Phases= 1 Bus1=258908320.2     Bus2=258908325.2     Length=57.84  units=m  Spacing=VERTICAL-1-PH-60-1PH wires=['4-CU-WP-7' '2-CU-WP-7']
New Line.258907943 Phases= 3 Bus1=258907935.1.2.3 Bus2=258907945.1.2.3 Length=169.30 units=m  Spacing=8'-ARM-NON-CENTER-POST-3PH wires=['4-ACSR-B-6X1' '4-ACSR-B-6X1' '4-ACSR-B-6X1' '2-CU-B-7']
New Line.263534352 Phases= 1 Bus1=263534349.1     Bus2=258908071.1     Length=64.53  units=m  Spacing=VERTICAL-1-PH-60-1PH wires=['4-ACSR-B-6X1' '2-CU-B-7']
New Line.615970395 Phases= 3 Bus1=258907794.1.2.3 Bus2=615970394.1.2.3 Length=30.28  units=m  Spacing=8'-ARM-NON-CENTER-POST-3PH wires=['6-CU-B-S' '6-CU-B-S' '6-CU-B-S' '2-CU-B-7']
New Line.699603807 Phases= 3 Bus1=263532863.1.2.3 Bus2=699603805.1.2.3 Length=7.56   units=m  Spacing=8'-ARM-NON-CENTER-POST-3PH wires=['1/0-ACSR-B-6X1' '1/0-ACSR-B-6X1' '1/0-ACSR-B-6X1' '1/0-ACSR-B-6X1']
New Line.627235800 Phases= 3 Bus1=627235797.1.2.3 Bus2=627235688.1.2.3 Length=6.11   units=m  Spacing=8'-ARM-STANDARD-3PH wires=['336-AAC-B-19' '336-AAC-B-19' '336-AAC-B-19' '1/0-ACSR-B-6X1']
New Line.699603885 Phases= 3 Bus1=699603882.1.2.3 Bus2=258903863.1.2.3 Length=33.25  units=m  Spacing=8'-ARM-NON-CENTER-POST-3PH wires=['336-AAC-B-19' '336-AAC-B-19' '336-AAC-B-19' '1/0-ACSR-B-6X1']
New Line.263532848 Phases= 1 Bus1=263532845.3     Bus2=258907693.3     Length=48.15  units=m  Spacing=VERTICAL-1-PH-60-1PH wires=['6-CU-WP-7' '6-CU-WP-7']
New Line.264379700 Phases= 3 Bus1=264379697.1.2.3 Bus2=258907906.1.2.3 Length=14.44  units=m  Spacing=8'-ARM-STANDARD-3PH wires=['336-ACSR-B-18X1' '336-ACSR-B-18X1' '336-ACSR-B-18X1' '336-ACSR-B-18X1']
New Line.258908393 Phases= 1 Bus1=258908390.1     Bus2=258908395.1     Length=28.63  units=m  Spacing=VERTICAL-1-PH-60-1PH wires=['4-CU-WP-7' '1/0-ACSR-B-6X1']
New Line.258903963 Phases= 3 Bus1=258903960.1.2.3 Bus2=258903965.1.2.3 Length=27.93  units=m  Spacing=8'-ARM-NON-CENTER-POST-3PH wires=['2-ACSR-B-6X1' '2-ACSR-B-6X1' '2-ACSR-B-6X1' '1/0-ACSR-B-6X1']
New Line.258908059 Phases= 3 Bus1=258908056.1.2.3 Bus2=258908061.1.2.3 Length=59.68  units=m  Spacing=8'-ARM-STANDARD-3PH wires=['2-ACSR-B-6X1' '2-ACSR-B-6X1' '2-ACSR-B-6X1' '1/0-ACSR-B-6X1']
New Line.263530691 Phases= 3 Bus1=258896529.1.2.3 Bus2=263530693.1.2.3 Length=1.52   units=m  Spacing=8'-ARM-STANDARD-3PH wires=['2-ACSR-B-6X1' '2-ACSR-B-6X1' '2-ACSR-B-6X1' '1/0-ACSR-B-6X1']
New Line.258907909 Phases= 3 Bus1=258907906.1.2.3 Bus2=258907911.1.2.3 Length=64.21  units=m  Spacing=8'-ARM-NON-CENTER-POST-3PH wires=['4-ACSR-B-6X1' '4-ACSR-B-6X1' '4-ACSR-B-6X1' '2-CU-B-7']
New Line.699624267 Phases= 1 Bus1=699624264.2     Bus2=258904085.2     Length=25.07  units=m  Spacing=VERTICAL-1-PH-60-1PH wires=['2-ACSR-B-6X1' '1/0-ACSR-B-6X1']
New Line.263532978 Phases= 3 Bus1=258903940.1.2.3 Bus2=263532980.1.2.3 Length=1.53   units=m  Spacing=8'-ARM-NON-CENTER-POST-3PH wires=['2-ACSR-B-6X1' '2-ACSR-B-6X1' '2-ACSR-B-6X1' '1/0-ACSR-B-6X1']
New Line.258896591 Phases= 3 Bus1=258896592.1.2.3 Bus2=258896593.1.2.3 Length=28.38  units=m  Spacing=8'-ARM-STANDARD-3PH wires=['336-AAC-B-19' '336-AAC-B-19' '336-AAC-B-19' '1/0-ACSR-B-6X1']
New Line.258896403 Phases= 3 Bus1=258896400.1.2.3 Bus2=258896405.1.2.3 Length=23.31  units=m  Spacing=8'-ARM-NON-CENTER-POST-3PH wires=['336-ACSR-WP-18X1' '336-ACSR-WP-18X1' '336-ACSR-WP-18X1' '336-ACSR-B-18X1']
New Line.716733234 Phases= 3 Bus1=716733231.1.2.3 Bus2=258904583.1.2.3 Length=56.11  units=m  Spacing=8'-ARM-NON-CENTER-POST-3PH wires=['2-ACSR-B-6X1' '2-ACSR-B-6X1' '2-ACSR-B-6X1' '1/0-ACSR-B-6X1']
New Line.260761094 Bus1=260761091.1     Bus2=260761086.1     LineCode=1/0-AL-HMWPECN-15KV Phases= 1 Length=64.64  units=m enable=yes
New Line.258904469 Phases= 3 Bus1=258904466.1.2.3 Bus2=258904471.1.2.3 Length=34.92  units=m  Spacing=8'-ARM-NON-CENTER-POST-3PH wires=['1/0-ACSR-B-6X1' '1/0-ACSR-B-6X1' '1/0-ACSR-B-6X1' '1/0-ACSR-B-6X1']
New Line.258904093 Phases= 1 Bus1=258904090.2     Bus2=258904095.2     Length=70.68  units=m  Spacing=VERTICAL-1-PH-60-1PH wires=['2-ACSR-B-6X1' '1/0-ACSR-B-6X1']
New Line.258908109 Phases= 1 Bus1=258908106.1     Bus2=258908111.1     Length=95.47  units=m  Spacing=VERTICAL-1-PH-60-1PH wires=['4-ACSR-B-6X1' '2-CU-B-7']
New Line.260761206 Bus1=260761203.2     Bus2=260761208.2     LineCode=1/0-AL-TRXLPELCJ-15KV Phases= 1 Length=18.58  units=m enable=yes
New Line.258908487 Phases= 1 Bus1=258908484.2     Bus2=258908489.2     Length=41.69  units=m  Spacing=VERTICAL-1-PH-60-1PH wires=['2-ACSR-B-6X1' '1/0-ACSR-B-6X1']
New Line.263532852 Phases= 3 Bus1=258903807.1.2.3 Bus2=263532854.1.2.3 Length=1.53   units=m  Spacing=8'-ARM-NON-CENTER-POST-3PH wires=['2-ACSR-B-6X1' '2-ACSR-B-6X1' '2-ACSR-B-6X1' '1/0-ACSR-B-6X1']
New Line.258907921 Phases= 3 Bus1=258907918.1.2.3 Bus2=258907923.1.2.3 Length=32.64  units=m  Spacing=8'-ARM-NON-CENTER-POST-3PH wires=['4-ACSR-B-6X1' '4-ACSR-B-6X1' '4-ACSR-B-6X1' '2-CU-B-7']
New Line.627235807 Phases= 3 Bus1=627235805.1.2.3 Bus2=258896618.1.2.3 Length=30.33  units=m  Spacing=8'-ARM-STANDARD-3PH wires=['336-AAC-B-19' '336-AAC-B-19' '336-AAC-B-19' '1/0-ACSR-B-6X1']
New Line.263533082 Bus1=263533079.3     Bus2=260761148.3     LineCode=1/0-AL-HMWPECN-15KV Phases= 1 Length=43.15  units=m enable=yes
New Line.399146169 Phases= 1 Bus1=399146165.2     Bus2=258908335.2     Length=85.49  units=m  Spacing=VERTICAL-1-PH-60-1PH wires=['4-CU-WP-7' '2-CU-WP-7']
New Line.258904654 Phases= 1 Bus1=258904651.3     Bus2=258904656.3     Length=50.82  units=m  Spacing=VERTICAL-1-PH-60-1PH wires=['4-CU-B-7' '2-CU-B-7']
New Line.258904377 Phases= 3 Bus1=258904374.1.2.3 Bus2=258904379.1.2.3 Length=24.84  units=m  Spacing=8'-ARM-NON-CENTER-POST-3PH wires=['2-ACSR-B-6X1' '2-ACSR-B-6X1' '2-ACSR-B-6X1' '1/0-ACSR-B-6X1']
New Line.263682374 Phases= 3 Bus1=258896598.1.2.3 Bus2=263682376.1.2.3 Length=1.52   units=m  Spacing=8'-ARM-NON-CENTER-POST-3PH wires=['2-ACSR-B-6X1' '2-ACSR-B-6X1' '2-ACSR-B-6X1' '1/0-ACSR-B-6X1']
New Line.258904429 Phases= 1 Bus1=258904426.1     Bus2=258904431.1     Length=52.23  units=m  Spacing=VERTICAL-1-PH-60-1PH wires=['2-ACSR-B-6X1' '1/0-ACSR-B-6X1']
New Line.699625175 Phases= 1 Bus1=699625172.1     Bus2=258904253.1     Length=42.62  units=m  Spacing=VERTICAL-1-PH-60-1PH wires=['4-ACSR-B-6X1' '2-CU-B-7']
New Line.699645957 Phases= 1 Bus1=699645954.1     Bus2=258904533.1     Length=51.17  units=m  Spacing=VERTICAL-1-PH-60-1PH wires=['2-ACSR-B-6X1' '1/0-ACSR-B-6X1']
New Line.258903891 Phases= 3 Bus1=258903878.1.2.3 Bus2=258903893.1.2.3 Length=38.24  units=m  Spacing=8'-ARM-NON-CENTER-POST-3PH wires=['336-AAC-B-19' '336-AAC-B-19' '336-AAC-B-19' '1/0-ACSR-B-6X1']
New Line.264491249 Phases= 3 Bus1=258903945.1.2.3 Bus2=264491247.1.2.3 Length=32.19  units=m  Spacing=8'-ARM-NON-CENTER-POST-3PH wires=['336-AAC-B-19' '336-AAC-B-19' '336-AAC-B-19' '1/0-ACSR-B-6X1']
New Line.258904414 Phases= 1 Bus1=258904411.1     Bus2=258904416.1     Length=29.06  units=m  Spacing=VERTICAL-1-PH-60-1PH wires=['2-ACSR-B-6X1' '1/0-ACSR-B-6X1']
New Line.263991396 Phases= 1 Bus1=263991393.3     Bus2=258904703.3     Length=69.88  units=m  Spacing=VERTICAL-1-PH-60-1PH wires=['2-ACSR-B-6X1' '2-ACSR-B-6X1']
New Line.CKT_TIE2_SW Phases= 3 Bus1=258896343.1.2.3 Bus2=CKT_TIE2.1.2.3  Length=1.52   units=m  Spacing=8'-ARM-NON-CENTER-POST-3PH wires=['336-ACSR-WP-18X1' '336-ACSR-WP-18X1' '336-ACSR-WP-18X1' '336-ACSR-B-18X1']
New Line.258903812 Phases= 3 Bus1=258903807.1.2.3 Bus2=258903814.1.2.3 Length=110.30 units=m  Spacing=8'-ARM-NON-CENTER-POST-3PH wires=['336-AAC-B-19' '336-AAC-B-19' '336-AAC-B-19' '1/0-ACSR-B-6X1']
New Line.258896645 Phases= 3 Bus1=258896640.1.2.3 Bus2=258896647.1.2.3 Length=8.04   units=m  Spacing=8'-ARM-NON-CENTER-POST-3PH wires=['336-AAC-B-19' '336-AAC-B-19' '336-AAC-B-19' '1/0-ACSR-B-6X1']
New Line.258904696 Phases= 3 Bus1=258904693.1.2.3 Bus2=258904698.1.2.3 Length=25.60  units=m  Spacing=8'-ARM-NON-CENTER-POST-3PH wires=['1/0-ACSR-B-6X1' '1/0-ACSR-B-6X1' '1/0-ACSR-B-6X1' '1/0-ACSR-B-6X1']
New Line.699645090 Phases= 1 Bus1=699645087.2     Bus2=258904268.2     Length=11.02  units=m  Spacing=VERTICAL-1-PH-60-1PH wires=['2-ACSR-B-6X1' '2-CU-B-7']
New Line.699622947 Phases= 3 Bus1=699622944.1.2.3 Bus2=258903919.1.2.3 Length=21.09  units=m  Spacing=8'-ARM-NON-CENTER-POST-3PH wires=['336-AAC-B-19' '336-AAC-B-19' '336-AAC-B-19' '1/0-ACSR-B-6X1']
New Line.258904311 Phases= 1 Bus1=258904308.2     Bus2=258904313.2     Length=30.83  units=m  Spacing=VERTICAL-1-PH-60-1PH wires=['2-ACSR-B-6X1' '1/0-ACSR-B-6X1']
New Line.264281558 Bus1=260760205.1     Bus2=264281556.1     LineCode=1/0-AL-HMWPECN-15KV Phases= 1 Length=118.40 units=m enable=no
New Line.263533095 Bus1=258904379.1.2.3 Bus2=263533097.1.2.3 LineCode=2-AL-HMWPECN-15KV Phases= 3 Length=1.52   units=m enable=yes
New Line.258907775 Phases= 1 Bus1=258907772.2     Bus2=258907777.2     Length=32.88  units=m  Spacing=VERTICAL-1-PH-60-1PH wires=['4-ACSR-B-6X1' '1/0-ACSR-B-6X1']
New Line.258908403 Phases= 1 Bus1=258908400.1     Bus2=258908405.1     Length=70.98  units=m  Spacing=VERTICAL-1-PH-60-1PH wires=['1/0-ACSR-WP-6X1' '2-CU-WP-7']
New Line.260761301 Bus1=260761298.3     Bus2=260761288.3     LineCode=1/0-AL-HMWPECN-15KV Phases= 1 Length=90.57  units=m enable=yes
New Line.699625382 Phases= 1 Bus1=699625379.1     Bus2=258904426.1     Length=52.48  units=m  Spacing=VERTICAL-1-PH-60-1PH wires=['2-ACSR-B-6X1' '1/0-ACSR-B-6X1']
New Line.258904676 Phases= 3 Bus1=258904673.1.2.3 Bus2=258904678.1.2.3 Length=50.06  units=m  Spacing=8'-ARM-NON-CENTER-POST-3PH wires=['1/0-ACSR-B-6X1' '1/0-ACSR-B-6X1' '1/0-ACSR-B-6X1' '1/0-ACSR-B-6X1']
New Line.258908042 Phases= 3 Bus1=258907955.1.2.3 Bus2=258908044.1.2.3 Length=17.53  units=m  Spacing=8'-ARM-NON-CENTER-POST-3PH wires=['2-ACSR-B-6X1' '2-ACSR-B-6X1' '2-ACSR-B-6X1' '2-ACSR-B-6X1']
New Line.258896304 Phases= 3 Bus1=258896301.1.2.3 Bus2=258896306.1.2.3 Length=82.58  units=m  Spacing=8'-ARM-NON-CENTER-POST-3PH wires=['336-ACSR-WP-18X1' '336-ACSR-WP-18X1' '336-ACSR-WP-18X1' '336-ACSR-B-18X1']
New Line.264256733 Bus1=260761168.2     Bus2=260761158.2     LineCode=2-AL-HMWPECN-15KV Phases= 1 Length=45.05  units=m enable=no
New Line.258907817 Phases= 2 Bus1=258907809.1.2   Bus2=258907819.1.2   Length=14.80  units=m  Spacing=8'-ARM-STANDARD-2PH wires=['4-CU-B-7' '4-CU-B-7' '4-CU-B-7']
New Line.263530736 Phases= 1 Bus1=258896640.3     Bus2=263530738.3     Length=1.52   units=m  Spacing=NEUTRAL-ON-ARM-1PH wires=['6-CU-B-S' '6-CU-B-S']
New Line.263532893 Phases= 1 Bus1=263532890.1     Bus2=258904563.1     Length=39.33  units=m  Spacing=VERTICAL-1-PH-60-1PH wires=['1/0-ACSR-WP-6X1' '1/0-ACSR-B-6X1']
New Line.264495218 Phases= 3 Bus1=258896311.1.2.3 Bus2=264495220.1.2.3 Length=1.52   units=m  Spacing=8'-ARM-NON-CENTER-POST-3PH wires=['336-ACSR-WP-18X1' '336-ACSR-WP-18X1' '336-ACSR-WP-18X1' '336-ACSR-B-18X1']
New Line.458944741 Phases= 3 Bus1=258896395.1.2.3 Bus2=458944739.1.2.3 Length=29.75  units=m  Spacing=8'-ARM-NON-CENTER-POST-3PH wires=['336-ACSR-WP-18X1' '336-ACSR-WP-18X1' '336-ACSR-WP-18X1' '336-ACSR-B-18X1']
New Line.699624163 Phases= 1 Bus1=263533025.2     Bus2=699624161.2     Length=77.81  units=m  Spacing=VERTICAL-1-PH-60-1PH wires=['2-ACSR-B-6X1' '1/0-ACSR-B-6X1']
New Line.258896319 Phases= 3 Bus1=258896316.1.2.3 Bus2=258896321.1.2.3 Length=126.80 units=m  Spacing=8'-ARM-NON-CENTER-POST-3PH wires=['336-ACSR-WP-18X1' '336-ACSR-WP-18X1' '336-ACSR-WP-18X1' '336-ACSR-B-18X1']
New Line.258904113 Phases= 1 Bus1=258904110.2     Bus2=258904115.2     Length=18.40  units=m  Spacing=VERTICAL-1-PH-60-1PH wires=['2-ACSR-B-6X1' '1/0-ACSR-B-6X1']
New Line.263530664 Phases= 3 Bus1=258896296.1.2.3 Bus2=263530666.1.2.3 Length=1.52   units=m  Spacing=8'-ARM-NON-CENTER-POST-3PH wires=['1/0-ACSR-WP-6X1' '1/0-ACSR-WP-6X1' '1/0-ACSR-WP-6X1' '1/0-ACSR-B-6X1']
New Line.699603640 Phases= 3 Bus1=699603637.1.2.3 Bus2=258904206.1.2.3 Length=24.15  units=m  Spacing=8'-ARM-NON-CENTER-POST-3PH wires=['2-CU-B-7' '4-CU-B-7' '4-CU-B-7' '2-CU-B-7']
New Line.258904098 Phases= 1 Bus1=258904095.2     Bus2=258904100.2     Length=61.05  units=m  Spacing=VERTICAL-1-PH-60-1PH wires=['2-ACSR-B-6X1' '1/0-ACSR-B-6X1']
New Line.275423519 Phases= 3 Bus1=258896493.1.2.3 Bus2=258908167.1.2.3 Length=71.27  units=m  Spacing=8'-ARM-STANDARD-3PH wires=['336-AAC-B-19' '336-AAC-B-19' '336-AAC-B-19' '1/0-ACSR-B-6X1']
New Line.699645827 Phases= 1 Bus1=258904646.3     Bus2=699645825.3     Length=64.05  units=m  Spacing=VERTICAL-1-PH-60-1PH wires=['4-CU-B-7' '2-CU-B-7']
New Line.699625680 Phases= 3 Bus1=258904211.1.2.3 Bus2=699625678.1.2.3 Length=22.60  units=m  Spacing=8'-ARM-NON-CENTER-POST-3PH wires=['2-CU-B-7' '4-CU-B-7' '4-CU-B-7' '2-CU-B-7']
New Line.263532861 Phases= 3 Bus1=258903814.1.2.3 Bus2=263532863.1.2.3 Length=1.53   units=m  Spacing=8'-ARM-NON-CENTER-POST-3PH wires=['1/0-ACSR-B-6X1' '1/0-ACSR-B-6X1' '1/0-ACSR-B-6X1' '1/0-ACSR-B-6X1']
New Line.258907862 Phases= 1 Bus1=258907859.1     Bus2=258907864.1     Length=39.47  units=m  Spacing=VERTICAL-1-PH-60-1PH wires=['4-CU-B-7' '2-CU-B-7']
New Line.258907802 Phases= 3 Bus1=258907799.1.2.3 Bus2=258907804.1.2.3 Length=38.19  units=m  Spacing=8'-ARM-NON-CENTER-POST-3PH wires=['6-CU-B-S' '6-CU-B-S' '6-CU-B-S' '2-CU-B-7']
New Line.258908328 Phases= 1 Bus1=258908325.2     Bus2=258908330.2     Length=37.94  units=m  Spacing=VERTICAL-1-PH-60-1PH wires=['4-CU-WP-7' '1/0-ACSR-B-6X1']
New Line.704839483 Bus1=704839480.3     Bus2=260761293.3     LineCode=1/0-AL-HMWPECN-15KV Phases= 1 Length=111.30 units=m enable=yes
New Line.699643894 Phases= 1 Bus1=699643891.2     Bus2=258904278.2     Length=15.64  units=m  Spacing=VERTICAL-1-PH-60-1PH wires=['2-ACSR-B-6X1' '1/0-ACSR-B-6X1']
New Line.699624652 Phases= 1 Bus1=699624649.3     Bus2=258904070.3     Length=13.79  units=m  Spacing=VERTICAL-1-PH-60-1PH wires=['2-ACSR-B-6X1' '1/0-ACSR-B-6X1']
New Line.263533239 Phases= 1 Bus1=258904752.2     Bus2=263533241.2     Length=1.52   units=m  Spacing=VERTICAL-1-PH-60-1PH wires=['2-ACSR-B-6X1' '2-CU-WP-7']
New Line.258903918 Phases= 3 Bus1=258903919.1.2.3 Bus2=258903920.1.2.3 Length=27.11  units=m  Spacing=8'-ARM-NON-CENTER-POST-3PH wires=['336-AAC-B-19' '336-AAC-B-19' '336-AAC-B-19' '1/0-ACSR-B-6X1']
New Line.264381919 Phases= 3 Bus1=258903806.1.2.3 Bus2=264381917.1.2.3 Length=1.52   units=m  Spacing=8'-ARM-NON-CENTER-POST-3PH wires=['336-AAC-B-19' '336-AAC-B-19' '336-AAC-B-19' '1/0-ACSR-B-6X1']
New Line.258908373 Phases= 1 Bus1=258908370.1     Bus2=258908375.1     Length=77.21  units=m  Spacing=VERTICAL-1-PH-60-1PH wires=['4-CU-WP-7' '1/0-ACSR-B-6X1']
New Line.258903923 Phases= 3 Bus1=258903920.1.2.3 Bus2=258903925.1.2.3 Length=52.49  units=m  Spacing=8'-ARM-NON-CENTER-POST-3PH wires=['336-AAC-B-19' '336-AAC-B-19' '336-AAC-B-19' '1/0-ACSR-B-6X1']
New Line.699623291 Phases= 1 Bus1=699623288.2     Bus2=258907668.2     Length=20.83  units=m  Spacing=VERTICAL-1-PH-60-1PH wires=['2-ACSR-B-6X1' '1/0-ACSR-B-6X1']
New Line.263533208 Bus1=263533205.2     Bus2=260761308.2     LineCode=1/0-AL-HMWPECN-15KV Phases= 1 Length=80.10  units=m enable=yes
New Line.258896336 Phases= 3 Bus1=258896328.1.2.3 Bus2=258896338.1.2.3 Length=20.25  units=m  Spacing=8'-ARM-NON-CENTER-POST-3PH wires=['336-ACSR-WP-18X1' '336-ACSR-WP-18X1' '336-ACSR-WP-18X1' '336-ACSR-B-18X1']
New Line.699625161 Phases= 1 Bus1=699625148.1     Bus2=699625159.1     Length=24.13  units=m  Spacing=VERTICAL-1-PH-60-1PH wires=['4-ACSR-B-6X1' '2-CU-B-7']
New Line.263534297 Phases= 2 Bus1=263534294.1.2   Bus2=258907824.1.2   Length=95.95  units=m  Spacing=8'-ARM-STANDARD-2PH wires=['4-CU-B-7' '4-CU-B-7' '2-CU-B-7']
New Line.263534347 Phases= 1 Bus1=258907940.1     Bus2=263534349.1     Length=1.52   units=m  Spacing=VERTICAL-1-PH-60-1PH wires=['4-ACSR-B-6X1' '2-CU-B-7']
New Line.258904745 Phases= 3 Bus1=258903800.1.2.3 Bus2=258904747.1.2.3 Length=47.53  units=m  Spacing=8'-ARM-NON-CENTER-POST-3PH wires=['6-CU-B-S' '6-CU-B-S' '6-CU-B-S' '2-CU-B-7']
New Line.258896361 Phases= 3 Bus1=258896353.1.2.3 Bus2=258896363.1.2.3 Length=14.51  units=m  Spacing=8'-ARM-NON-CENTER-POST-3PH wires=['336-ACSR-WP-18X1' '336-ACSR-WP-18X1' '336-ACSR-WP-18X1' '336-ACSR-B-18X1']
New Line.263532834 Phases= 3 Bus1=258903780.1.2.3 Bus2=263532836.1.2.3 Length=1.52   units=m  Spacing=8'-ARM-NON-CENTER-POST-3PH wires=['6-CU-B-S' '6-CU-B-S' '6-CU-B-S' '6-CU-B-S']
New Line.263974100 Phases= 1 Bus1=263974097.3     Bus2=259500718.3     Length=6.13   units=m  Spacing=VERTICAL-1-PH-104-1PH wires=['1/0-ACSR-B-6X1' '1/0-ACSR-B-6X1']
New Line.263681960 Phases= 1 Bus1=258896454.1     Bus2=263681962.1     Length=1.53   units=m  Spacing=VERTICAL-1-PH-60-1PH wires=['4-CU-WP-7' '4-CU-WP-7']
New Line.699623037 Phases= 3 Bus1=699623034.1.2.3 Bus2=258904666.1.2.3 Length=12.17  units=m  Spacing=8'-ARM-NON-CENTER-POST-3PH wires=['1/0-ACSR-B-6X1' '1/0-ACSR-B-6X1' '1/0-ACSR-B-6X1' '1/0-ACSR-B-6X1']
New Line.630011491 Bus1=630011445.1     Bus2=630011493.1     LineCode=1/0-AL-TRXLPELCJ-25KV Phases= 1 Length=1.53   units=m enable=yes
New Line.258904541 Phases= 1 Bus1=258904533.1     Bus2=258904543.1     Length=36.28  units=m  Spacing=VERTICAL-1-PH-60-1PH wires=['2-ACSR-B-6X1' '1/0-ACSR-B-6X1']
New Line.399146163 Phases= 1 Bus1=258908330.2     Bus2=399146165.2     Length=1.51   units=m  Spacing=VERTICAL-1-PH-60-1PH wires=['4-CU-WP-7' '2-CU-WP-7']
New Line.263681992 Phases= 1 Bus1=263681989.2     Bus2=258904779.2     Length=30.89  units=m  Spacing=VERTICAL-1-PH-60-1PH wires=['2-ACSR-B-6X1' '1/0-ACSR-B-6X1']
New Line.699625681 Phases= 3 Bus1=699625678.1.2.3 Bus2=258904216.1.2.3 Length=20.13  units=m  Spacing=8'-ARM-NON-CENTER-POST-3PH wires=['2-CU-B-7' '4-CU-B-7' '4-CU-B-7' '2-CU-B-7']
New Line.699646124 Phases= 3 Bus1=699646121.1.2.3 Bus2=258904523.1.2.3 Length=29.74  units=m  Spacing=8'-ARM-NON-CENTER-POST-3PH wires=['1/0-ACSR-WP-6X1' '1/0-ACSR-WP-6X1' '1/0-ACSR-WP-6X1' '2-CU-B-7']
New Line.258908228 Phases= 3 Bus1=258908215.1.2.3 Bus2=258908230.1.2.3 Length=6.86   units=m  Spacing=8'-ARM-NON-CENTER-POST-3PH wires=['4-CU-WP-7' '4-CU-WP-7' '4-CU-WP-7' '1/0-CU-WP-7']
New Line.263532857 Phases= 3 Bus1=263532854.1.2.3 Bus2=258904718.1.2.3 Length=60.39  units=m  Spacing=8'-ARM-NON-CENTER-POST-3PH wires=['2-ACSR-B-6X1' '2-ACSR-B-6X1' '2-ACSR-B-6X1' '1/0-ACSR-B-6X1']
New Line.258908233 Phases= 3 Bus1=258908230.1.2.3 Bus2=258908235.1.2.3 Length=82.18  units=m  Spacing=8'-ARM-NON-CENTER-POST-3PH wires=['4-CU-WP-7' '4-CU-WP-7' '4-CU-WP-7' '1/0-CU-WP-7']
New Line.258903943 Phases= 3 Bus1=258903940.1.2.3 Bus2=258903945.1.2.3 Length=44.53  units=m  Spacing=8'-ARM-NON-CENTER-POST-3PH wires=['336-AAC-B-19' '336-AAC-B-19' '336-AAC-B-19' '1/0-ACSR-B-6X1']
New Line.263681996 Phases= 1 Bus1=258904783.2     Bus2=263681998.2     Length=1.52   units=m  Spacing=VERTICAL-1-PH-60-1PH wires=['2-ACSR-B-6X1' '1/0-ACSR-B-6X1']
New Line.633960128 Bus1=633960094.1.2.3 Bus2=633960130.1.2.3 LineCode=1/0-AL-TRXLPELCJ-25KV Phases= 3 Length=1.54   units=m enable=yes
New Line.258907874 Phases= 1 Bus1=258907869.2     Bus2=258907876.2     Length=9.40   units=m  Spacing=VERTICAL-1-PH-60-1PH wires=['2-ACSR-B-6X1' '2-ACSR-B-6X1']
New Line.258908378 Phases= 1 Bus1=258908375.1     Bus2=258908380.1     Length=19.72  units=m  Spacing=VERTICAL-1-PH-60-1PH wires=['4-CU-WP-7' '4-CU-WP-7']
New Line.699623290 Phases= 1 Bus1=258907663.2     Bus2=699623288.2     Length=21.54  units=m  Spacing=VERTICAL-1-PH-60-1PH wires=['2-ACSR-B-6X1' '1/0-ACSR-B-6X1']
New Line.260761266 Bus1=260761263.3     Bus2=260761268.3     LineCode=1/0-AL-TRXLPELCJ-15KV Phases= 1 Length=22.59  units=m enable=yes
New Line.699624857 Phases= 3 Bus1=699624854.1.2.3 Bus2=258903975.1.2.3 Length=25.35  units=m  Spacing=8'-ARM-NON-CENTER-POST-3PH wires=['2-ACSR-B-6X1' '2-ACSR-B-6X1' '2-ACSR-B-6X1' '1/0-ACSR-B-6X1']
New Line.258904730 Phases= 2 Bus1=258904725.1.2   Bus2=258904732.1.2   Length=31.65  units=m  Spacing=8'-ARM-STANDARD-2PH wires=['2-ACSR-B-6X1' '2-ACSR-B-6X1' '1/0-ACSR-B-6X1']
New Line.258904735 Phases= 2 Bus1=258904732.1.2   Bus2=258904737.1.2   Length=35.27  units=m  Spacing=8'-ARM-STANDARD-2PH wires=['2-ACSR-B-6X1' '2-ACSR-B-6X1' '1/0-ACSR-B-6X1']
New Line.258904164 Phases= 1 Bus1=258904154.3     Bus2=258904166.3     Length=35.12  units=m  Spacing=VERTICAL-1-PH-60-1PH wires=['2-ACSR-B-6X1' '1/0-ACSR-B-6X1']
New Line.258903998 Phases= 3 Bus1=258903995.1.2.3 Bus2=258904000.1.2.3 Length=31.80  units=m  Spacing=8'-ARM-NON-CENTER-POST-3PH wires=['2-ACSR-B-6X1' '2-ACSR-B-6X1' '2-ACSR-B-6X1' '1/0-ACSR-B-6X1']
New Line.699624817 Phases= 3 Bus1=699624814.1.2.3 Bus2=258903985.1.2.3 Length=33.86  units=m  Spacing=8'-ARM-NON-CENTER-POST-3PH wires=['2-ACSR-B-6X1' '2-ACSR-B-6X1' '2-ACSR-B-6X1' '1/0-ACSR-B-6X1']
New Line.263974095 Phases= 1 Bus1=258908044.3     Bus2=263974097.3     Length=1.53   units=m  Spacing=VERTICAL-1-PH-104-1PH wires=['1/0-ACSR-B-6X1' '1/0-ACSR-B-6X1']
New Line.258907681 Phases= 1 Bus1=258904779.2     Bus2=258907683.2     Length=36.52  units=m  Spacing=VERTICAL-1-PH-60-1PH wires=['2-ACSR-B-6X1' '1/0-ACSR-B-6X1']
New Line.258896413 Phases= 3 Bus1=258896410.1.2.3 Bus2=258896415.1.2.3 Length=26.54  units=m  Spacing=8'-ARM-NON-CENTER-POST-3PH wires=['336-ACSR-WP-18X1' '336-ACSR-WP-18X1' '336-ACSR-WP-18X1' '336-ACSR-B-18X1']
New Line.699624094 Phases= 1 Bus1=258904020.2     Bus2=699624092.2     Length=44.28  units=m  Spacing=VERTICAL-1-PH-60-1PH wires=['2-ACSR-B-6X1' '1/0-ACSR-B-6X1']
New Line.258908238 Phases= 3 Bus1=258908235.1.2.3 Bus2=258908240.1.2.3 Length=10.90  units=m  Spacing=8'-ARM-NON-CENTER-POST-3PH wires=['4-CU-WP-7' '4-CU-WP-7' '4-CU-WP-7' '1/0-CU-WP-7']
New Line.263879215 Bus1=263879212.3     Bus2=260984962.3     LineCode=1/0-AL-TRXLPELCJ-15KV Phases= 1 Length=16.65  units=m enable=yes
New Line.258904454 Phases= 1 Bus1=258904446.1     Bus2=258904456.1     Length=31.11  units=m  Spacing=VERTICAL-1-PH-60-1PH wires=['2-ACSR-B-6X1' '1/0-ACSR-B-6X1']
New Line.264256742 Bus1=260761208.2     Bus2=264256740.2     LineCode=1/0-AL-TRXLPELCJ-15KV Phases= 1 Length=17.74  units=m enable=no
New Line.263534343 Bus1=263534340.1.2.3 Bus2=260762267.1.2.3 LineCode=2-AL-HMWPECN-15KV Phases= 3 Length=104.90 units=m enable=yes
New Line.258908027 Phases= 1 Bus1=258908022.2     Bus2=258908029.2     Length=103.90 units=m  Spacing=VERTICAL-1-PH-60-1PH wires=['2-ACSR-B-6X1' '1/0-ACSR-B-6X1']
New Line.260761166 Bus1=260761163.2     Bus2=260761168.2     LineCode=2-AL-HMWPECN-15KV Phases= 1 Length=12.00  units=m enable=yes