New loadshape.DailyA
New loadshape.DailyB
New loadshape.DailyC

New loadshape.DutyA
New loadshape.DutyB
New loadshape.DutyC

New loadshape.YearlyA
New loadshape.YearlyB
New loadshape.YearlyC