New loadshape.LS_PhaseA npts=1440 sinterval=60 pmult=(0.226205 0.225060 0.223963 0.222913 0.221908 0.220946 0.220026 0.219147 0.218307 0.217506 0.216740 0.216011 0.215315 0.214653 0.214022 0.213422 0.212851 0.212308 0.211793 0.211304 0.210840 0.210400 0.209984 0.209589 0.209216 0.208863 0.208530 0.208215 0.207918 0.207638 0.207374 0.207126 0.206892 0.206672 0.206465 0.206270 0.206087 0.205916 0.205755 0.205603 0.205461 0.205328 0.205202 0.205084 0.204973 0.204869 0.204770 0.204677 0.204590 0.204506 0.204427 0.204351 0.204279 0.204210 0.204143 0.204079 0.204016 0.203954 0.203894 0.203835 0.203776 0.203718 0.203659 0.203600 0.203541 0.203481 0.203419 0.203357 0.203293 0.203228 0.203161 0.203091 0.203020 0.202946 0.202870 0.202791 0.202710 0.202625 0.202538 0.202448 0.202354 0.202257 0.202157 0.202054 0.201947 0.201836 0.201722 0.201605 0.201484 0.201359 0.201230 0.201098 0.200962 0.200822 0.200679 0.200531 0.200381 0.200226 0.200068 0.199906 0.199741 0.199572 0.199399 0.199223 0.199044 0.198861 0.198675 0.198486 0.198293 0.198098 0.197899 0.197698 0.197494 0.197287 0.197077 0.196864 0.196650 0.196432 0.196213 0.195991 0.195767 0.195541 0.195313 0.195084 0.194852 0.194620 0.194385 0.194150 0.193913 0.193675 0.193436 0.193197 0.192956 0.192715 0.192474 0.192232 0.191990 0.191748 0.191507 0.191265 0.191023 0.190782 0.190542 0.190302 0.190063 0.189826 0.189589 0.189353 0.189119 0.188887 0.188656 0.188427 0.188200 0.187975 0.187752 0.187531 0.187313 0.187097 0.186884 0.186674 0.186467 0.186263 0.186063 0.185865 0.185671 0.185481 0.185295 0.185112 0.184933 0.184759 0.184588 0.184423 0.184261 0.184104 0.183952 0.183805 0.183662 0.183525 0.183393 0.183266 0.183144 0.183028 0.182918 0.182813 0.182714 0.182621 0.182534 0.182454 0.182379 0.182311 0.182249 0.182193 0.182144 0.182102 0.182067 0.182038 0.182017 0.182002 0.181995 0.181994 0.182001 0.182016 0.182037 0.182066 0.182103 0.182148 0.182200 0.182260 0.182327 0.182403 0.182486 0.182578 0.182677 0.182785 0.182901 0.183025 0.183157 0.183298 0.183447 0.183604 0.183770 0.183945 0.184128 0.184319 0.184519 0.184728 0.184945 0.185171 0.185406 0.185649 0.185902 0.186163 0.186433 0.186712 0.186999 0.187296 0.187601 0.187915 0.188238 0.188570 0.188911 0.189261 0.189620 0.189988 0.190364 0.190750 0.191144 0.191548 0.191960 0.192381 0.192811 0.193250 0.193698 0.194154 0.194620 0.195094 0.195577 0.196069 0.196570 0.197079 0.197597 0.198123 0.198659 0.199202 0.199755 0.200316 0.200885 0.201463 0.202050 0.202644 0.203247 0.203859 0.204478 0.205106 0.205742 0.206387 0.207039 0.207699 0.208367 0.209044 0.209728 0.210419 0.211119 0.211826 0.212541 0.213264 0.213994 0.214732 0.215477 0.216229 0.216989 0.217755 0.218529 0.219310 0.220098 0.220893 0.221695 0.222504 0.223319 0.224141 0.224970 0.225805 0.226647 0.227495 0.228349 0.229209 0.230076 0.230949 0.231827 0.232712 0.233602 0.234498 0.235400 0.236307 0.237220 0.238138 0.239061 0.239990 0.240924 0.241863 0.242806 0.243755 0.244709 0.245667 0.246630 0.247597 0.248569 0.249545 0.250526 0.251510 0.252499 0.253492 0.254488 0.255489 0.256493 0.257501 0.258512 0.259527 0.260545 0.261566 0.262591 0.263619 0.264649 0.265683 0.266719 0.267758 0.268800 0.269845 0.270891 0.271940 0.272992 0.274045 0.275101 0.276158 0.277218 0.278279 0.279342 0.280406 0.281472 0.282540 0.283609 0.284679 0.285750 0.286822 0.287895 0.288969 0.290044 0.291120 0.292196 0.293273 0.294350 0.295428 0.296506 0.297584 0.298662 0.299740 0.300818 0.301896 0.302974 0.304051 0.305128 0.306204 0.307280 0.308355 0.309429 0.310503 0.311575 0.312647 0.313718 0.314787 0.315855 0.316922 0.317987 0.319051 0.320113 0.321174 0.322233 0.323290 0.324346 0.325399 0.326451 0.327500 0.328547 0.329592 0.330635 0.331675 0.332713 0.333749 0.334782 0.335812 0.336840 0.337864 0.338886 0.339905 0.340921 0.341935 0.342945 0.343951 0.344955 0.345956 0.346953 0.347946 0.348937 0.349923 0.350907 0.351886 0.352862 0.353834 0.354803 0.355767 0.356728 0.357685 0.358638 0.359587 0.360532 0.361472 0.362409 0.363341 0.364270 0.365193 0.366113 0.367028 0.367939 0.368845 0.369747 0.370644 0.371537 0.372425 0.373308 0.374187 0.375061 0.375931 0.376795 0.377655 0.378510 0.379360 0.380205 0.381045 0.381881 0.382711 0.383537 0.384357 0.385172 0.385983 0.386788 0.387588 0.388383 0.389173 0.389957 0.390737 0.391511 0.392280 0.393044 0.393803 0.394556 0.395304 0.396047 0.396784 0.397517 0.398244 0.398965 0.399682 0.400393 0.401098 0.401799 0.402494 0.403184 0.403868 0.404547 0.405221 0.405889 0.406552 0.407210 0.407862 0.408509 0.409151 0.409787 0.410418 0.411044 0.411664 0.412280 0.412890 0.413494 0.414094 0.414688 0.415277 0.415860 0.416439 0.417012 0.417580 0.418143 0.418701 0.419253 0.419801 0.420343 0.420881 0.421413 0.421940 0.422463 0.422980 0.423492 0.424000 0.424502 0.425000 0.425492 0.425980 0.426463 0.426941 0.427415 0.427883 0.428347 0.428807 0.429261 0.429711 0.430157 0.430598 0.431034 0.431466 0.431893 0.432316 0.432735 0.433149 0.433559 0.433964 0.434365 0.434763 0.435155 0.435544 0.435929 0.436309 0.436686 0.437058 0.437427 0.437792 0.438152 0.438509 0.438862 0.439212 0.439557 0.439899 0.440238 0.440572 0.440903 0.441231 0.441555 0.441876 0.442194 0.442508 0.442818 0.443126 0.443430 0.443732 0.444030 0.444325 0.444617 0.444906 0.445192 0.445475 0.445755 0.446033 0.446308 0.446580 0.446849 0.447116 0.447381 0.447642 0.447902 0.448159 0.448413 0.448666 0.448916 0.449163 0.449409 0.449652 0.449894 0.450133 0.450371 0.450606 0.450840 0.451071 0.451301 0.451529 0.451756 0.451981 0.452204 0.452426 0.452646 0.452864 0.453082 0.453298 0.453512 0.453726 0.453938 0.454149 0.454359 0.454567 0.454775 0.454982 0.455187 0.455392 0.455596 0.455799 0.456002 0.456204 0.456405 0.456605 0.456805 0.457004 0.457203 0.457401 0.457599 0.457797 0.457994 0.458191 0.458388 0.458585 0.458781 0.458977 0.459174 0.459370 0.459566 0.459762 0.459959 0.460155 0.460352 0.460549 0.460746 0.460944 0.461141 0.461340 0.461538 0.461737 0.461937 0.462137 0.462337 0.462538 0.462740 0.462943 0.463146 0.463349 0.463554 0.463759 0.463966 0.464173 0.464381 0.464589 0.464799 0.465010 0.465222 0.465434 0.465648 0.465863 0.466079 0.466297 0.466515 0.466734 0.466955 0.467177 0.467401 0.467625 0.467851 0.468078 0.468307 0.468537 0.468768 0.469001 0.469236 0.469471 0.469709 0.469947 0.470188 0.470430 0.470673 0.470918 0.471165 0.471413 0.471663 0.471914 0.472167 0.472422 0.472678 0.472936 0.473196 0.473458 0.473721 0.473986 0.474253 0.474521 0.474791 0.475063 0.475337 0.475612 0.475890 0.476169 0.476450 0.476732 0.477017 0.477303 0.477591 0.477881 0.478173 0.478466 0.478761 0.479058 0.479357 0.479658 0.479960 0.480265 0.480571 0.480879 0.481188 0.481499 0.481813 0.482128 0.482444 0.482763 0.483083 0.483405 0.483728 0.484053 0.484380 0.484709 0.485039 0.485371 0.485705 0.486040 0.486377 0.486716 0.487056 0.487397 0.487741 0.488085 0.488432 0.488780 0.489129 0.489480 0.489832 0.490185 0.490540 0.490897 0.491255 0.491614 0.491974 0.492336 0.492699 0.493063 0.493428 0.493795 0.494163 0.494532 0.494902 0.495273 0.495645 0.496019 0.496393 0.496768 0.497144 0.497522 0.497900 0.498278 0.498658 0.499039 0.499420 0.499802 0.500185 0.500568 0.500952 0.501337 0.501722 0.502107 0.502494 0.502880 0.503267 0.503655 0.504042 0.504431 0.504819 0.505208 0.505596 0.505985 0.506374 0.506764 0.507153 0.507542 0.507931 0.508320 0.508709 0.509098 0.509487 0.509875 0.510264 0.510651 0.511039 0.511426 0.511813 0.512199 0.512584 0.512969 0.513354 0.513737 0.514121 0.514503 0.514884 0.515265 0.515645 0.516024 0.516402 0.516779 0.517155 0.517529 0.517903 0.518275 0.518647 0.519016 0.519385 0.519752 0.520118 0.520483 0.520845 0.521207 0.521566 0.521924 0.522281 0.522636 0.522988 0.523340 0.523689 0.524036 0.524381 0.524725 0.525066 0.525405 0.525742 0.526077 0.526410 0.526740 0.527068 0.527394 0.527717 0.528038 0.528357 0.528673 0.528986 0.529297 0.529605 0.529910 0.530212 0.530512 0.530809 0.531103 0.531394 0.531682 0.531967 0.532249 0.532528 0.532804 0.533077 0.533347 0.533613 0.533876 0.534135 0.534392 0.534644 0.534894 0.535140 0.535382 0.535621 0.535856 0.536088 0.536316 0.536540 0.536760 0.536977 0.537190 0.537399 0.537604 0.537805 0.538002 0.538195 0.538385 0.538570 0.538751 0.538928 0.539101 0.539269 0.539434 0.539594 0.539750 0.539901 0.540049 0.540192 0.540330 0.540464 0.540594 0.540719 0.540840 0.540957 0.541068 0.541176 0.541278 0.541376 0.541470 0.541558 0.541643 0.541722 0.541797 0.541867 0.541932 0.541993 0.542048 0.542099 0.542145 0.542187 0.542223 0.542255 0.542281 0.542303 0.542320 0.542332 0.542340 0.542342 0.542339 0.542332 0.542319 0.542301 0.542279 0.542252 0.542219 0.542182 0.542139 0.542092 0.542039 0.541982 0.541920 0.541852 0.541780 0.541703 0.541620 0.541533 0.541440 0.541343 0.541241 0.541133 0.541021 0.540904 0.540782 0.540655 0.540522 0.540385 0.540243 0.540096 0.539945 0.539788 0.539626 0.539460 0.539289 0.539112 0.538931 0.538746 0.538555 0.538360 0.538160 0.537955 0.537745 0.537531 0.537312 0.537088 0.536860 0.536627 0.536389 0.536147 0.535901 0.535650 0.535394 0.535134 0.534869 0.534601 0.534327 0.534050 0.533768 0.533481 0.533191 0.532896 0.532597 0.532294 0.531987 0.531675 0.531360 0.531041 0.530717 0.530390 0.530059 0.529724 0.529385 0.529042 0.528695 0.528345 0.527991 0.527634 0.527272 0.526908 0.526540 0.526168 0.525793 0.525414 0.525033 0.524648 0.524259 0.523868 0.523473 0.523075 0.522675 0.522271 0.521864 0.521455 0.521042 0.520627 0.520209 0.519788 0.519365 0.518939 0.518510 0.518079 0.517646 0.517210 0.516772 0.516332 0.515889 0.515444 0.514997 0.514548 0.514097 0.513644 0.513189 0.512733 0.512274 0.511814 0.511352 0.510888 0.510423 0.509957 0.509489 0.509019 0.508549 0.508077 0.507604 0.507129 0.506654 0.506177 0.505700 0.505221 0.504742 0.504262 0.503781 0.503300 0.502817 0.502335 0.501851 0.501368 0.500883 0.500399 0.499914 0.499429 0.498944 0.498458 0.497973 0.497488 0.497002 0.496517 0.496032 0.495547 0.495062 0.494578 0.494094 0.493610 0.493127 0.492645 0.492163 0.491682 0.491201 0.490721 0.490242 0.489764 0.489287 0.488810 0.488335 0.487861 0.487387 0.486915 0.486444 0.485975 0.485506 0.485039 0.484574 0.484109 0.483647 0.483185 0.482725 0.482267 0.481811 0.481356 0.480903 0.480451 0.480001 0.479554 0.479108 0.478664 0.478221 0.477781 0.477343 0.476907 0.476472 0.476040 0.475610 0.475182 0.474757 0.474333 0.473912 0.473493 0.473076 0.472662 0.472249 0.471840 0.471432 0.471027 0.470624 0.470224 0.469825 0.469430 0.469037 0.468646 0.468258 0.467872 0.467488 0.467107 0.466729 0.466353 0.465979 0.465608 0.465240 0.464874 0.464510 0.464149 0.463790 0.463434 0.463080 0.462729 0.462380 0.462033 0.461689 0.461347 0.461008 0.460670 0.460336 0.460003 0.459673 0.459345 0.459019 0.458695 0.458374 0.458054 0.457737 0.457422 0.457108 0.456797 0.456488 0.456180 0.455875 0.455571 0.455269 0.454969 0.454670 0.454373 0.454078 0.453784 0.453492 0.453201 0.452911 0.452623 0.452335 0.452049 0.451764 0.451481 0.451198 0.450916 0.450634 0.450354 0.450074 0.449795 0.449516 0.449238 0.448960 0.448683 0.448405 0.448128 0.447850 0.447573 0.447296 0.447018 0.446740 0.446461 0.446182 0.445902 0.445622 0.445341 0.445058 0.444775 0.444491 0.444205 0.443918 0.443630 0.443340 0.443048 0.442754 0.442459 0.442162 0.441862 0.441560 0.441256 0.440949 0.440640 0.440328 0.440013 0.439695 0.439374 0.439050 0.438722 0.438391 0.438056 0.437718 0.437375 0.437029 0.436678 0.436324 0.435964 0.435601 0.435232 0.434859 0.434481 0.434097 0.433709 0.433315 0.432916 0.432511 0.432100 0.431683 0.431261 0.430832 0.430397 0.429955 0.429507 0.429052 0.428590 0.428121 0.427645 0.427162 0.426671 0.426173 0.425667 0.425153 0.424632 0.424102 0.423564 0.423018 0.422463 0.421900 0.421328 0.420747 0.420157 0.419558 0.418950 0.418332 0.417705 0.417069 0.416423 0.415767 0.415101 0.414425 0.413739 0.413043 0.412336 0.411619 0.410892 0.410154 0.409405 0.408646 0.407875 0.407094 0.406302 0.405498 0.404684 0.403858 0.403021 0.402173 0.401313 0.400442 0.399559 0.398665 0.397759 0.396842 0.395913 0.394972 0.394020 0.393056 0.392080 0.391093 0.390094 0.389083 0.388061 0.387027 0.385981 0.384924 0.383856 0.382776 0.381684 0.380582 0.379468 0.378342 0.377206 0.376059 0.374901 0.373732 0.372552 0.371362 0.370162 0.368951 0.367730 0.366499 0.365259 0.364009 0.362749 0.361481 0.360203 0.358917 0.357622 0.356319 0.355008 0.353689 0.352363 0.351030 0.349690 0.348344 0.346991 0.345633 0.344269 0.342900 0.341526 0.340149 0.338767 0.337382 0.335993 0.334603 0.333210 0.331816 0.330420 0.329024 0.327629 0.326233 0.324839 0.323447 0.322057 0.320670 0.319286 0.317907 0.316533 0.315164 0.313802 0.312447 0.311100 0.309762 0.308433 0.307115 0.305807 0.304512 0.303230 0.301961 0.300707 0.299469 0.298248 0.297044 0.295860 0.294695 0.293551 0.292429 0.291330 0.290255 0.289206 0.288184 0.287190 0.286225 0.285290 0.284387 0.283518 0.282683 0.281885 0.281123 0.280401 0.279719 0.279079 0.278483 0.277932 0.277428 0.276973 0.276567 0.276214 0.275914 0.275670 0.275484 0.275357 0.275291 0.275288 0.275350 0.275480 0.275679 0.275950 0.276294 0.276714 0.277212 0.277791 0.278452 ) qmult=(0.107167 0.104313 0.101567 0.098925 0.096385 0.093943 0.091598 0.089347 0.087188 0.085117 0.083133 0.081233 0.079415 0.077677 0.076015 0.074429 0.072916 0.071474 0.070100 0.068794 0.067552 0.066372 0.065254 0.064195 0.063193 0.062246 0.061353 0.060512 0.059721 0.058978 0.058283 0.057632 0.057026 0.056461 0.055938 0.055454 0.055007 0.054597 0.054222 0.053881 0.053573 0.053295 0.053048 0.052829 0.052637 0.052472 0.052333 0.052217 0.052125 0.052054 0.052004 0.051974 0.051964 0.051971 0.051995 0.052036 0.052092 0.052162 0.052245 0.052342 0.052450 0.052570 0.052700 0.052840 0.052989 0.053146 0.053311 0.053483 0.053661 0.053845 0.054034 0.054227 0.054425 0.054626 0.054830 0.055037 0.055245 0.055455 0.055666 0.055878 0.056089 0.056301 0.056512 0.056721 0.056930 0.057136 0.057341 0.057543 0.057742 0.057938 0.058132 0.058321 0.058507 0.058688 0.058865 0.059038 0.059206 0.059368 0.059526 0.059678 0.059825 0.059966 0.060102 0.060231 0.060354 0.060471 0.060582 0.060686 0.060784 0.060875 0.060959 0.061037 0.061107 0.061171 0.061228 0.061278 0.061321 0.061357 0.061386 0.061408 0.061423 0.061431 0.061431 0.061425 0.061412 0.061391 0.061364 0.061330 0.061289 0.061241 0.061186 0.061125 0.061057 0.060982 0.060901 0.060814 0.060720 0.060620 0.060514 0.060401 0.060283 0.060158 0.060028 0.059893 0.059751 0.059604 0.059452 0.059295 0.059132 0.058965 0.058792 0.058615 0.058433 0.058247 0.058057 0.057862 0.057663 0.057460 0.057254 0.057043 0.056830 0.056613 0.056392 0.056169 0.055942 0.055713 0.055482 0.055248 0.055011 0.054772 0.054532 0.054289 0.054045 0.053799 0.053552 0.053304 0.053055 0.052804 0.052553 0.052302 0.052049 0.051797 0.051545 0.051292 0.051040 0.050788 0.050536 0.050285 0.050035 0.049786 0.049538 0.049292 0.049046 0.048802 0.048560 0.048320 0.048082 0.047846 0.047612 0.047381 0.047153 0.046927 0.046704 0.046484 0.046267 0.046053 0.045843 0.045637 0.045434 0.045235 0.045040 0.044850 0.044663 0.044481 0.044303 0.044130 0.043962 0.043798 0.043640 0.043487 0.043339 0.043196 0.043059 0.042927 0.042801 0.042681 0.042567 0.042458 0.042356 0.042260 0.042171 0.042088 0.042011 0.041941 0.041878 0.041821 0.041771 0.041729 0.041693 0.041665 0.041644 0.041630 0.041623 0.041624 0.041633 0.041649 0.041673 0.041705 0.041744 0.041792 0.041847 0.041910 0.041982 0.042062 0.042149 0.042246 0.042350 0.042463 0.042584 0.042714 0.042852 0.042999 0.043154 0.043318 0.043491 0.043672 0.043862 0.044061 0.044269 0.044485 0.044711 0.044945 0.045188 0.045440 0.045701 0.045972 0.046251 0.046539 0.046836 0.047142 0.047457 0.047782 0.048115 0.048457 0.048809 0.049169 0.049539 0.049918 0.050306 0.050703 0.051108 0.051523 0.051947 0.052380 0.052823 0.053274 0.053734 0.054203 0.054681 0.055168 0.055663 0.056168 0.056682 0.057204 0.057735 0.058276 0.058824 0.059382 0.059948 0.060523 0.061106 0.061698 0.062299 0.062908 0.063526 0.064152 0.064786 0.065429 0.066080 0.066740 0.067407 0.068083 0.068767 0.069459 0.070159 0.070867 0.071582 0.072306 0.073037 0.073777 0.074523 0.075278 0.076040 0.076810 0.077587 0.078371 0.079163 0.079962 0.080768 0.081581 0.082402 0.083229 0.084063 0.084905 0.085753 0.086607 0.087469 0.088337 0.089211 0.090092 0.090980 0.091873 0.092773 0.093679 0.094591 0.095509 0.096433 0.097363 0.098299 0.099241 0.100188 0.101140 0.102098 0.103062 0.104030 0.105004 0.105984 0.106968 0.107957 0.108951 0.109950 0.110954 0.111962 0.112975 0.113993 0.115015 0.116041 0.117072 0.118107 0.119146 0.120188 0.121235 0.122286 0.123341 0.124399 0.125461 0.126526 0.127595 0.128667 0.129742 0.130821 0.131903 0.132988 0.134076 0.135166 0.136260 0.137356 0.138455 0.139556 0.140660 0.141766 0.142875 0.143985 0.145098 0.146213 0.147330 0.148449 0.149570 0.150692 0.151816 0.152942 0.154069 0.155198 0.156328 0.157459 0.158592 0.159725 0.160860 0.161995 0.163132 0.164269 0.165407 0.166546 0.167686 0.168826 0.169966 0.171107 0.172248 0.173389 0.174531 0.175672 0.176814 0.177956 0.179097 0.180238 0.181379 0.182520 0.183660 0.184800 0.185940 0.187079 0.188217 0.189354 0.190491 0.191627 0.192762 0.193896 0.195029 0.196161 0.197292 0.198422 0.199550 0.200677 0.201803 0.202927 0.204050 0.205171 0.206291 0.207409 0.208525 0.209640 0.210753 0.211864 0.212973 0.214080 0.215185 0.216288 0.217389 0.218488 0.219585 0.220679 0.221771 0.222861 0.223948 0.225033 0.226116 0.227196 0.228274 0.229349 0.230421 0.231491 0.232558 0.233622 0.234683 0.235742 0.236798 0.237851 0.238901 0.239948 0.240993 0.242034 0.243072 0.244107 0.245139 0.246168 0.247194 0.248217 0.249236 0.250252 0.251265 0.252275 0.253281 0.254284 0.255284 0.256281 0.257274 0.258263 0.259249 0.260232 0.261211 0.262187 0.263160 0.264128 0.265094 0.266056 0.267014 0.267969 0.268920 0.269867 0.270811 0.271751 0.272688 0.273621 0.274551 0.275477 0.276399 0.277317 0.278232 0.279144 0.280051 0.280955 0.281855 0.282752 0.283645 0.284534 0.285419 0.286301 0.287179 0.288054 0.288925 0.289792 0.290655 0.291515 0.292371 0.293223 0.294072 0.294917 0.295759 0.296597 0.297431 0.298262 0.299089 0.299912 0.300732 0.301548 0.302361 0.303170 0.303975 0.304777 0.305576 0.306371 0.307162 0.307950 0.308734 0.309515 0.310293 0.311067 0.311838 0.312605 0.313369 0.314129 0.314886 0.315640 0.316391 0.317138 0.317882 0.318622 0.319360 0.320094 0.320825 0.321552 0.322277 0.322998 0.323717 0.324432 0.325144 0.325853 0.326559 0.327262 0.327962 0.328659 0.329353 0.330044 0.330733 0.331418 0.332101 0.332780 0.333457 0.334131 0.334803 0.335471 0.336137 0.336800 0.337461 0.338119 0.338774 0.339427 0.340077 0.340725 0.341370 0.342013 0.342653 0.343291 0.343926 0.344559 0.345190 0.345818 0.346444 0.347068 0.347690 0.348309 0.348926 0.349541 0.350154 0.350765 0.351374 0.351980 0.352585 0.353187 0.353788 0.354387 0.354983 0.355578 0.356171 0.356762 0.357352 0.357939 0.358525 0.359109 0.359691 0.360272 0.360851 0.361428 0.362004 0.362578 0.363150 0.363721 0.364291 0.364859 0.365425 0.365990 0.366554 0.367116 0.367677 0.368236 0.368794 0.369351 0.369907 0.370461 0.371014 0.371566 0.372116 0.372666 0.373214 0.373761 0.374307 0.374852 0.375396 0.375939 0.376481 0.377021 0.377561 0.378100 0.378638 0.379174 0.379710 0.380245 0.380779 0.381313 0.381845 0.382376 0.382907 0.383437 0.383966 0.384494 0.385021 0.385548 0.386074 0.386599 0.387124 0.387647 0.388170 0.388693 0.389214 0.389735 0.390256 0.390775 0.391294 0.391813 0.392330 0.392847 0.393364 0.393880 0.394395 0.394910 0.395424 0.395937 0.396450 0.396963 0.397475 0.397986 0.398497 0.399007 0.399516 0.400025 0.400534 0.401041 0.401549 0.402056 0.402562 0.403067 0.403572 0.404077 0.404581 0.405084 0.405587 0.406089 0.406591 0.407092 0.407593 0.408093 0.408592 0.409090 0.409589 0.410086 0.410583 0.411079 0.411574 0.412069 0.412563 0.413057 0.413550 0.414042 0.414533 0.415024 0.415514 0.416003 0.416492 0.416979 0.417466 0.417952 0.418437 0.418922 0.419405 0.419888 0.420369 0.420850 0.421330 0.421809 0.422287 0.422764 0.423240 0.423715 0.424189 0.424662 0.425134 0.425604 0.426074 0.426542 0.427009 0.427475 0.427940 0.428404 0.428866 0.429327 0.429786 0.430245 0.430701 0.431157 0.431611 0.432063 0.432514 0.432964 0.433412 0.433858 0.434303 0.434746 0.435188 0.435628 0.436066 0.436502 0.436937 0.437369 0.437800 0.438229 0.438656 0.439081 0.439504 0.439926 0.440345 0.440761 0.441176 0.441589 0.441999 0.442408 0.442814 0.443217 0.443619 0.444018 0.444414 0.444809 0.445200 0.445589 0.445976 0.446360 0.446741 0.447120 0.447496 0.447869 0.448240 0.448607 0.448972 0.449334 0.449693 0.450049 0.450402 0.450752 0.451099 0.451443 0.451783 0.452120 0.452454 0.452785 0.453113 0.453437 0.453757 0.454075 0.454388 0.454699 0.455005 0.455308 0.455608 0.455903 0.456195 0.456483 0.456768 0.457048 0.457325 0.457597 0.457866 0.458131 0.458391 0.458648 0.458900 0.459149 0.459393 0.459632 0.459868 0.460099 0.460326 0.460548 0.460766 0.460979 0.461188 0.461393 0.461592 0.461788 0.461978 0.462164 0.462345 0.462521 0.462692 0.462859 0.463020 0.463177 0.463328 0.463475 0.463617 0.463753 0.463885 0.464011 0.464132 0.464248 0.464359 0.464464 0.464564 0.464659 0.464748 0.464832 0.464910 0.464983 0.465051 0.465113 0.465169 0.465220 0.465265 0.465304 0.465338 0.465366 0.465389 0.465405 0.465416 0.465421 0.465420 0.465413 0.465400 0.465382 0.465357 0.465327 0.465290 0.465248 0.465199 0.465145 0.465084 0.465017 0.464944 0.464865 0.464780 0.464689 0.464591 0.464487 0.464377 0.464261 0.464138 0.464010 0.463875 0.463733 0.463586 0.463432 0.463271 0.463105 0.462932 0.462752 0.462566 0.462374 0.462176 0.461971 0.461760 0.461542 0.461318 0.461087 0.460850 0.460607 0.460357 0.460101 0.459838 0.459569 0.459293 0.459011 0.458723 0.458428 0.458127 0.457819 0.457505 0.457185 0.456858 0.456525 0.456186 0.455840 0.455487 0.455129 0.454764 0.454392 0.454015 0.453631 0.453241 0.452844 0.452442 0.452033 0.451618 0.451196 0.450769 0.450335 0.449895 0.449450 0.448998 0.448540 0.448075 0.447605 0.447129 0.446647 0.446159 0.445665 0.445165 0.444660 0.444148 0.443631 0.443108 0.442579 0.442045 0.441505 0.440959 0.440408 0.439851 0.439288 0.438721 0.438147 0.437569 0.436985 0.436395 0.435801 0.435201 0.434596 0.433986 0.433370 0.432750 0.432125 0.431495 0.430859 0.430220 0.429575 0.428925 0.428271 0.427612 0.426949 0.426281 0.425608 0.424931 0.424250 0.423564 0.422874 0.422180 0.421482 0.420780 0.420074 0.419363 0.418649 0.417931 0.417209 0.416484 0.415755 0.415022 0.414286 0.413546 0.412803 0.412057 0.411307 0.410554 0.409799 0.409040 0.408278 0.407513 0.406745 0.405975 0.405202 0.404426 0.403648 0.402867 0.402084 0.401299 0.400511 0.399722 0.398930 0.398136 0.397340 0.396542 0.395743 0.394942 0.394139 0.393335 0.392529 0.391722 0.390914 0.390104 0.389294 0.388482 0.387669 0.386856 0.386041 0.385226 0.384410 0.383594 0.382777 0.381960 0.381143 0.380325 0.379507 0.378689 0.377871 0.377054 0.376236 0.375419 0.374602 0.373786 0.372970 0.372154 0.371340 0.370526 0.369713 0.368901 0.368090 0.367281 0.366472 0.365665 0.364859 0.364055 0.363252 0.362451 0.361652 0.360854 0.360058 0.359265 0.358473 0.357684 0.356896 0.356111 0.355329 0.354549 0.353771 0.352996 0.352224 0.351455 0.350688 0.349925 0.349164 0.348407 0.347653 0.346902 0.346154 0.345410 0.344669 0.343932 0.343199 0.342469 0.341743 0.341021 0.340303 0.339589 0.338879 0.338173 0.337472 0.336775 0.336082 0.335393 0.334709 0.334030 0.333355 0.332685 0.332019 0.331359 0.330703 0.330052 0.329407 0.328766 0.328130 0.327500 0.326875 0.326255 0.325640 0.325031 0.324427 0.323829 0.323236 0.322649 0.322067 0.321491 0.320921 0.320357 0.319798 0.319245 0.318698 0.318157 0.317622 0.317093 0.316570 0.316053 0.315542 0.315037 0.314538 0.314045 0.313559 0.313078 0.312604 0.312137 0.311675 0.311220 0.310771 0.310328 0.309892 0.309462 0.309038 0.308620 0.308209 0.307805 0.307406 0.307014 0.306629 0.306249 0.305876 0.305510 0.305149 0.304795 0.304448 0.304106 0.303771 0.303442 0.303119 0.302803 0.302493 0.302189 0.301891 0.301599 0.301313 0.301033 0.300759 0.300491 0.300229 0.299973 0.299723 0.299479 0.299240 0.299007 0.298780 0.298558 0.298342 0.298131 0.297926 0.297726 0.297531 0.297342 0.297157 0.296978 0.296804 0.296635 0.296470 0.296311 0.296156 0.296005 0.295860 0.295718 0.295581 0.295449 0.295320 0.295196 0.295076 0.294959 0.294846 0.294737 0.294632 0.294530 0.294431 0.294336 0.294244 0.294154 0.294068 0.293984 0.293904 0.293825 0.293749 0.293676 0.293604 0.293535 0.293467 0.293402 0.293337 0.293275 0.293214 0.293153 0.293094 0.293036 0.292979 0.292922 0.292866 0.292810 0.292754 0.292699 0.292643 0.292586 0.292530 0.292472 0.292414 0.292355 0.292295 0.292234 0.292171 0.292106 0.292040 0.291972 0.291901 0.291829 0.291753 0.291675 0.291595 0.291511 0.291424 0.291334 0.291240 0.291142 0.291040 0.290935 0.290825 0.290710 0.290591 0.290467 0.290338 0.290204 0.290064 0.289919 0.289768 0.289611 0.289448 0.289279 0.289103 0.288920 0.288731 0.288534 0.288330 0.288119 0.287900 0.287673 0.287438 0.287196 0.286944 0.286684 0.286416 0.286139 0.285852 0.285556 0.285251 0.284937 0.284612 0.284278 0.283933 0.283578 0.283213 0.282838 0.282451 0.282054 0.281646 0.281226 0.280795 0.280353 0.279899 0.279433 0.278956 0.278466 0.277964 0.277450 0.276924 0.276385 0.275833 0.275269 0.274692 0.274102 0.273499 0.272882 0.272253 0.271610 0.270954 0.270285 0.269601 0.268905 0.268195 0.267471 0.266733 0.265982 0.265217 0.264438 0.263645 0.262839 0.262019 0.261185 0.260337 0.259475 0.258600 0.257711 0.256808 0.255892 0.254962 0.254019 0.253062 0.252093 0.251110 0.250113 0.249104 0.248082 0.247048 0.246001 0.244941 0.243870 0.242786 0.241691 0.240584 0.239465 0.238336 0.237196 0.236045 0.234883 0.233712 0.232531 0.231340 0.230140 0.228932 0.227715 0.226490 0.225257 0.224017 0.222770 0.221517 0.220258 0.218993 0.217723 0.216449 0.215171 0.213889 0.212605 0.211318 0.210030 0.208740 0.207450 0.206160 0.204871 0.203584 0.202299 0.201017 0.199739 0.198465 0.197196 0.195934 0.194679 0.193432 0.192194 0.190965 0.189747 0.188541 0.187347 0.186167 0.185002 0.183852 0.182720 0.181605 0.180510 0.179435 0.178382 0.177351 0.176345 0.175364 0.174410 0.173484 0.172588 )
