New Line.10EF34__2663676 Bus1=T4795B23_1_reg.1.2.3 Bus2=25893620.1.2.3 LineCode=NONE Phases=3 Length=0.001 units=m
