New Load.26281708_3 Phases= 1  Bus1=26281708.3 kV= 13.2043879907621  XFKVA=15.000000 PF= 0.995192003593264  NumCust=2.000000 ! KW= 0 
New Load.25734564_2 Phases= 1  Bus1=25734564.2 kV= 13.2043879907621  XFKVA=25.000000 PF= 0.999995951852119  NumCust=5.000000 ! KW= 0 
New Load.103359063_1 Phases= 1  Bus1=103359063.1 kV= 13.2043879907621  XFKVA=75.000000 PF= 0.999939777925908  NumCust=6.000000 ! KW= 0 
New Load.25734640_3 Phases= 1  Bus1=25734640.3 kV= 13.2043879907621  XFKVA=100.000000 PF= 0.995192003593264  NumCust=5.000000 ! KW= 0 
New Load.25024993_3 Phases= 1  Bus1=25024993.3 kV= 13.2043879907621  XFKVA=25.000000 PF= 0.995192003593264  NumCust=3.000000 ! KW= 0 
New Load.26896053_1 Phases= 1  Bus1=26896053.1 kV= 13.2043879907621  XFKVA=50.000000 PF= 0.999939777925908  NumCust=2.000000 ! KW= 0 
New Load.1140417_3 Phases= 1  Bus1=1140417.3 kV= 13.2043879907621  XFKVA=15.000000 PF= 0.995192003593264  NumCust=1.000000 ! KW= 0 
New Load.1104705_2 Phases= 1  Bus1=1104705.2 kV= 13.2043879907621  XFKVA=15.000000 PF= 0.999995951852119  NumCust=1.000000 ! KW= 0 
New Load.1105218_3 Phases= 1  Bus1=1105218.3 kV= 13.2043879907621  XFKVA=75.000000 PF= 0.995192003593264  NumCust=7.000000 ! KW= 0 
New Load.1106342_3 Phases= 1  Bus1=1106342.3 kV= 13.2043879907621  XFKVA=25.000000 PF= 0.995192003593264  NumCust=1.000000 ! KW= 0 
New Load.25836866_2 Phases= 1  Bus1=25836866.2 kV= 13.2043879907621  XFKVA=25.000000 PF= 0.999995951852119  NumCust=3.000000 ! KW= 0 
New Load.26128165_2 Phases= 1  Bus1=26128165.2 kV= 13.2043879907621  XFKVA=50.000000 PF= 0.999995951852119  NumCust=5.000000 ! KW= 0 
New Load.103537122_1 Phases= 1  Bus1=103537122.1 kV= 13.2043879907621  XFKVA=50.000000 PF= 0.999939777925908  NumCust=2.000000 ! KW= 0 
New Load.103536788_2 Phases= 1  Bus1=103536788.2 kV= 13.2043879907621  XFKVA=75.000000 PF= 0.999995951852119  NumCust=0.000000 enable=F  ! KW= 0 
New Load.1105257_3 Phases= 1  Bus1=1105257.3 kV= 13.2043879907621  XFKVA=50.000000 PF= 0.995192003593264  NumCust=3.000000 ! KW= 0 
New Load.25836865_2 Phases= 1  Bus1=25836865.2 kV= 13.2043879907621  XFKVA=50.000000 PF= 0.999995951852119  NumCust=8.000000 ! KW= 0 
New Load.25490382_2 Phases= 1  Bus1=25490382.2 kV= 13.2043879907621  XFKVA=50.000000 PF= 0.999995951852119  NumCust=6.000000 ! KW= 0 
New Load.1139897_3 Phases= 1  Bus1=1139897.3 kV= 13.2043879907621  XFKVA=50.000000 PF= 0.995192003593264  NumCust=5.000000 ! KW= 0 
New Load.25734551_2 Phases= 1  Bus1=25734551.2 kV= 13.2043879907621  XFKVA=50.000000 PF= 0.999995951852119  NumCust=3.000000 ! KW= 0 
!New Load.25734551_3 Phases= 1  Bus1=25734551.3 kV= 13.2043879907621  XFKVA=25.000000 PF= 0.995192003593264  NumCust=3.000000 ! KW= 0 
New Load.103645566_3 Phases= 1  Bus1=103645566.3 kV= 13.2043879907621  XFKVA=75.000000 PF= 0.995192003593264  NumCust=0.000000 enable=F  ! KW= 0 
New Load.1140112_1 Phases= 1  Bus1=1140112.1 kV= 13.2043879907621  XFKVA=50.000000 PF= 0.999939777925908  NumCust=4.000000 ! KW= 0 
New Load.26776418_1 Phases= 1  Bus1=26776418.1 kV= 13.2043879907621  XFKVA=75.000000 PF= 0.999939777925908  NumCust=7.000000 ! KW= 0 
New Load.25734560_2 Phases= 1  Bus1=25734560.2 kV= 13.2043879907621  XFKVA=50.000000 PF= 0.999995951852119  NumCust=6.000000 ! KW= 0 
New Load.1141046_3 Phases= 1  Bus1=1141046.3 kV= 13.2043879907621  XFKVA=50.000000 PF= 0.995192003593264  NumCust=3.000000 ! KW= 0 
New Load.103383301_3 Phases= 1  Bus1=103383301.3 kV= 13.2043879907621  XFKVA=50.000000 PF= 0.995192003593264  NumCust=4.000000 ! KW= 0 
New Load.1106347_3 Phases= 1  Bus1=1106347.3 kV= 13.2043879907621  XFKVA=37.500000 PF= 0.995192003593264  NumCust=4.000000 ! KW= 0 
New Load.1140821_1 Phases= 1  Bus1=1140821.1 kV= 13.2043879907621  XFKVA=25.000000 PF= 0.999939777925908  NumCust=3.000000 ! KW= 0 
New Load.26776411_1 Phases= 1  Bus1=26776411.1 kV= 13.2043879907621  XFKVA=100.000000 PF= 0.999939777925908  NumCust=5.000000 ! KW= 0 
New Load.25734580_3 Phases= 1  Bus1=25734580.3 kV= 13.2043879907621  XFKVA=37.500000 PF= 0.995192003593264  NumCust=4.000000 ! KW= 0 
New Load.26887526_2 Phases= 1  Bus1=26887526.2 kV= 13.2043879907621  XFKVA=50.000000 PF= 0.999995951852119  NumCust=2.000000 ! KW= 0 
New Load.25734606_3 Phases= 1  Bus1=25734606.3 kV= 13.2043879907621  XFKVA=50.000000 PF= 0.995192003593264  NumCust=6.000000 ! KW= 0 
New Load.25885435_1 Phases= 1  Bus1=25885435.1 kV= 13.2043879907621  XFKVA=15.000000 PF= 0.999939777925908  NumCust=1.000000 ! KW= 0 
New Load.25426804_1 Phases= 1  Bus1=25426804.1 kV= 13.2043879907621  XFKVA=100.000000 PF= 0.999939777925908  NumCust=5.000000 ! KW= 0 
New Load.25873711_1 Phases= 1  Bus1=25873711.1 kV= 13.2043879907621  XFKVA=50.000000 PF= 0.999939777925908  NumCust=4.000000 ! KW= 0 
New Load.25234913_1 Phases= 1  Bus1=25234913.1 kV= 13.2043879907621  XFKVA=37.500000 PF= 0.999939777925908  NumCust=3.000000 ! KW= 0 
New Load.26555782_2 Phases= 1  Bus1=26555782.2 kV= 13.2043879907621  XFKVA=50.000000 PF= 0.999995951852119  NumCust=8.000000 ! KW= 0 
New Load.25873713_1 Phases= 1  Bus1=25873713.1 kV= 13.2043879907621  XFKVA=100.000000 PF= 0.999939777925908  NumCust=7.000000 ! KW= 0 
New Load.1141080_1 Phases= 1  Bus1=1141080.1 kV= 13.2043879907621  XFKVA=25.000000 PF= 0.999939777925908  NumCust=2.000000 ! KW= 0 
New Load.25426805_1 Phases= 1  Bus1=25426805.1 kV= 13.2043879907621  XFKVA=100.000000 PF= 0.999939777925908  NumCust=6.000000 ! KW= 0 
New Load.25734570_3 Phases= 1  Bus1=25734570.3 kV= 13.2043879907621  XFKVA=50.000000 PF= 0.995192003593264  NumCust=7.000000 ! KW= 0 
New Load.26555809_1 Phases= 1  Bus1=26555809.1 kV= 13.2043879907621  XFKVA=50.000000 PF= 0.999939777925908  NumCust=6.000000 ! KW= 0 
New Load.26887522_2 Phases= 1  Bus1=26887522.2 kV= 13.2043879907621  XFKVA=50.000000 PF= 0.999995951852119  NumCust=4.000000 ! KW= 0 
New Load.26776430_1 Phases= 1  Bus1=26776430.1 kV= 13.2043879907621  XFKVA=50.000000 PF= 0.999939777925908  NumCust=7.000000 ! KW= 0 
New Load.103626618_2 Phases= 1  Bus1=103626618.2 kV= 13.2043879907621  XFKVA=100.000000 PF= 0.999995951852119  NumCust=0.000000 enable=F  ! KW= 0 
New Load.103413072_2 Phases= 1  Bus1=103413072.2 kV= 13.2043879907621  XFKVA=50.000000 PF= 0.999995951852119  NumCust=0.000000 ! KW= 0 
New Load.25356093_1 Phases= 1  Bus1=25356093.1 kV= 13.2043879907621  XFKVA=50.000000 PF= 0.999939777925908  NumCust=10.000000 ! KW= 0 
New Load.103359052_1 Phases= 1  Bus1=103359052.1 kV= 13.2043879907621  XFKVA=75.000000 PF= 0.999939777925908  NumCust=8.000000 ! KW= 0 
New Load.25356096_1 Phases= 1  Bus1=25356096.1 kV= 13.2043879907621  XFKVA=50.000000 PF= 0.999939777925908  NumCust=10.000000 ! KW= 0 
New Load.103016827_2 Phases= 1  Bus1=103016827.2 kV= 13.2043879907621  XFKVA=50.000000 PF= 0.999995951852119  NumCust=0.000000 ! KW= 0 
New Load.103383282_3 Phases= 1  Bus1=103383282.3 kV= 13.2043879907621  XFKVA=75.000000 PF= 0.995192003593264  NumCust=6.000000 ! KW= 0 
New Load.26555802_1 Phases= 1  Bus1=26555802.1 kV= 13.2043879907621  XFKVA=50.000000 PF= 0.999939777925908  NumCust=7.000000 ! KW= 0 
New Load.25356091_1 Phases= 1  Bus1=25356091.1 kV= 13.2043879907621  XFKVA=50.000000 PF= 0.999939777925908  NumCust=9.000000 ! KW= 0 
New Load.26555797_1 Phases= 1  Bus1=26555797.1 kV= 13.2043879907621  XFKVA=50.000000 PF= 0.999939777925908  NumCust=6.000000 ! KW= 0 
New Load.26555762_2 Phases= 1  Bus1=26555762.2 kV= 13.2043879907621  XFKVA=50.000000 PF= 0.999995951852119  NumCust=10.000000 ! KW= 0 
New Load.25234912_1 Phases= 1  Bus1=25234912.1 kV= 13.2043879907621  XFKVA=75.000000 PF= 0.999939777925908  NumCust=5.000000 ! KW= 0 
New Load.26037868_2 Phases= 1  Bus1=26037868.2 kV= 13.2043879907621  XFKVA=25.000000 PF= 0.999995951852119  NumCust=0.333000 ! KW= 0 
New Load.26037868_3 Phases= 1  Bus1=26037868.3 kV= 13.2043879907621  XFKVA=25.000000 PF= 0.995192003593264  NumCust=0.333000 ! KW= 0 
New Load.26037868_1 Phases= 1  Bus1=26037868.1 kV= 13.2043879907621  XFKVA=25.000000 PF= 0.999939777925908  NumCust=0.333000 ! KW= 0 
New Load.26709857_1 Phases= 1  Bus1=26709857.1 kV= 13.2043879907621  XFKVA=50.000000 PF= 0.999939777925908  NumCust=4.000000 ! KW= 0 
New Load.1104995_2 Phases= 1  Bus1=1104995.2 kV= 13.2043879907621  XFKVA=25.000000 PF= 0.999995951852119  NumCust=3.000000 ! KW= 0 
New Load.103307201_1 Phases= 1  Bus1=103307201.1 kV= 13.2043879907621  XFKVA=75.000000 PF= 0.999939777925908  NumCust=5.000000 ! KW= 0 
New Load.103536786_2 Phases= 1  Bus1=103536786.2 kV= 13.2043879907621  XFKVA=25.000000 PF= 0.999995951852119  NumCust=0.000000 enable=F  ! KW= 0 
New Load.1104677_1 Phases= 1  Bus1=1104677.1 kV= 13.2043879907621  XFKVA=10.000000 PF= 0.999939777925908  NumCust=0.000000 ! KW= 0 
New Load.25734547_2 Phases= 1  Bus1=25734547.2 kV= 13.2043879907621  XFKVA=50.000000 PF= 0.999995951852119  NumCust=4.000000 ! KW= 0 
New Load.1105216_3 Phases= 1  Bus1=1105216.3 kV= 13.2043879907621  XFKVA=50.000000 PF= 0.995192003593264  NumCust=9.000000 ! KW= 0 
New Load.26709852_1 Phases= 1  Bus1=26709852.1 kV= 13.2043879907621  XFKVA=100.000000 PF= 0.999939777925908  NumCust=4.000000 ! KW= 0 
New Load.103537123_1 Phases= 1  Bus1=103537123.1 kV= 13.2043879907621  XFKVA=50.000000 PF= 0.999939777925908  NumCust=4.000000 ! KW= 0 
New Load.1106104_3 Phases= 1  Bus1=1106104.3 kV= 13.2043879907621  XFKVA=25.000000 PF= 0.995192003593264  NumCust=1.000000 ! KW= 0 
New Load.26709829_2 Phases= 1  Bus1=26709829.2 kV= 13.2043879907621  XFKVA=100.000000 PF= 0.999995951852119  NumCust=5.000000 ! KW= 0 
New Load.103007628_1 Phases= 1  Bus1=103007628.1 kV= 13.2043879907621  XFKVA=50.000000 PF= 0.999939777925908  NumCust=5.000000 ! KW= 0 
New Load.1140498_1 Phases= 1  Bus1=1140498.1 kV= 13.2043879907621  XFKVA=10.000000 PF= 0.999939777925908  NumCust=2.000000 ! KW= 0 
New Load.103645574_2 Phases= 1  Bus1=103645574.2 kV= 13.2043879907621  XFKVA=75.000000 PF= 0.999995951852119  NumCust=0.000000 enable=F  ! KW= 0 
New Load.25734531_3 Phases= 1  Bus1=25734531.3 kV= 13.2043879907621  XFKVA=50.000000 PF= 0.995192003593264  NumCust=8.000000 ! KW= 0 
New Load.1140852_1 Phases= 1  Bus1=1140852.1 kV= 13.2043879907621  XFKVA=15.000000 PF= 0.999939777925908  NumCust=2.000000 ! KW= 0 
New Load.26139234_1 Phases= 1  Bus1=26139234.1 kV= 13.2043879907621  XFKVA=50.000000 PF= 0.999939777925908  NumCust=0.333000 ! KW= 0 
New Load.26139234_2 Phases= 1  Bus1=26139234.2 kV= 13.2043879907621  XFKVA=50.000000 PF= 0.999995951852119  NumCust=0.333000 ! KW= 0 
New Load.26139234_3 Phases= 1  Bus1=26139234.3 kV= 13.2043879907621  XFKVA=50.000000 PF= 0.995192003593264  NumCust=0.333000 ! KW= 0 
New Load.103265086_3 Phases= 1  Bus1=103265086.3 kV= 13.2043879907621  XFKVA=75.000000 PF= 0.995192003593264  NumCust=8.000000 ! KW= 0 
New Load.25750595_2 Phases= 1  Bus1=25750595.2 kV= 13.2043879907621  XFKVA=50.000000 PF= 0.999995951852119  NumCust=8.000000 ! KW= 0 
New Load.25734562_2 Phases= 1  Bus1=25734562.2 kV= 13.2043879907621  XFKVA=50.000000 PF= 0.999995951852119  NumCust=6.000000 ! KW= 0 
New Load.25360258_3 Phases= 1  Bus1=25360258.3 kV= 13.2043879907621  XFKVA=50.000000 PF= 0.995192003593264  NumCust=8.000000 ! KW= 0 
New Load.25360259_3 Phases= 1  Bus1=25360259.3 kV= 13.2043879907621  XFKVA=50.000000 PF= 0.995192003593264  NumCust=9.000000 ! KW= 0 
New Load.1139960_3 Phases= 1  Bus1=1139960.3 kV= 13.2043879907621  XFKVA=75.000000 PF= 0.995192003593264  NumCust=4.000000 ! KW= 0 
New Load.1140193_3 Phases= 1  Bus1=1140193.3 kV= 13.2043879907621  XFKVA=15.000000 PF= 0.995192003593264  NumCust=1.000000 ! KW= 0 
New Load.1140874_1 Phases= 1  Bus1=1140874.1 kV= 13.2043879907621  XFKVA=15.000000 PF= 0.999939777925908  NumCust=1.000000 ! KW= 0 
New Load.1140515_1 Phases= 1  Bus1=1140515.1 kV= 13.2043879907621  XFKVA=15.000000 PF= 0.999939777925908  NumCust=2.000000 ! KW= 0 
New Load.26567440_3 Phases= 1  Bus1=26567440.3 kV= 13.2043879907621  XFKVA=50.000000 PF= 0.995192003593264  NumCust=7.000000 ! KW= 0 
New Load.25734591_1 Phases= 1  Bus1=25734591.1 kV= 13.2043879907621  XFKVA=37.500000 PF= 0.999939777925908  NumCust=1.000000 ! KW= 0 
New Load.26709819_2 Phases= 1  Bus1=26709819.2 kV= 13.2043879907621  XFKVA=50.000000 PF= 0.999995951852119  NumCust=4.000000 ! KW= 0 
New Load.25360261_3 Phases= 1  Bus1=25360261.3 kV= 13.2043879907621  XFKVA=25.000000 PF= 0.995192003593264  NumCust=5.000000 ! KW= 0 
New Load.1140505_3 Phases= 1  Bus1=1140505.3 kV= 13.2043879907621  XFKVA=15.000000 PF= 0.995192003593264  NumCust=0.000000 ! KW= 0 
New Load.25024999_1 Phases= 1  Bus1=25024999.1 kV= 13.2043879907621  XFKVA=25.000000 PF= 0.999939777925908  NumCust=0.000000 ! KW= 0 
New Load.103016818_2 Phases= 1  Bus1=103016818.2 kV= 13.2043879907621  XFKVA=50.000000 PF= 0.999995951852119  NumCust=0.000000 ! KW= 0 
New Load.1105664_1 Phases= 1  Bus1=1105664.1 kV= 13.2043879907621  XFKVA=37.500000 PF= 0.999939777925908  NumCust=5.000000 ! KW= 0 
New Load.1140710_3 Phases= 1  Bus1=1140710.3 kV= 13.2043879907621  XFKVA=25.000000 PF= 0.995192003593264  NumCust=3.000000 ! KW= 0 
New Load.25734641_3 Phases= 1  Bus1=25734641.3 kV= 13.2043879907621  XFKVA=50.000000 PF= 0.995192003593264  NumCust=5.000000 ! KW= 0 
New Load.1104971_2 Phases= 1  Bus1=1104971.2 kV= 13.2043879907621  XFKVA=15.000000 PF= 0.999995951852119  NumCust=1.000000 ! KW= 0 
New Load.25490385_2 Phases= 1  Bus1=25490385.2 kV= 13.2043879907621  XFKVA=50.000000 PF= 0.999995951852119  NumCust=8.000000 ! KW= 0 
New Load.103631265_2 Phases= 1  Bus1=103631265.2 kV= 13.2043879907621  XFKVA=50.000000 PF= 0.999995951852119  NumCust=0.000000 enable=F  ! KW= 0 
New Load.26709786_3 Phases= 1  Bus1=26709786.3 kV= 13.2043879907621  XFKVA=50.000000 PF= 0.995192003593264  NumCust=4.000000 ! KW= 0 
New Load.103359056_2 Phases= 1  Bus1=103359056.2 kV= 13.2043879907621  XFKVA=50.000000 PF= 0.999995951852119  NumCust=3.000000 ! KW= 0 
New Load.26555737_2 Phases= 1  Bus1=26555737.2 kV= 13.2043879907621  XFKVA=50.000000 PF= 0.999995951852119  NumCust=9.000000 ! KW= 0 
New Load.1104653_1 Phases= 1  Bus1=1104653.1 kV= 13.2043879907621  XFKVA=50.000000 PF= 0.999939777925908  NumCust=0.333000 ! KW= 0 
New Load.1104653_2 Phases= 1  Bus1=1104653.2 kV= 13.2043879907621  XFKVA=50.000000 PF= 0.999995951852119  NumCust=0.333000 ! KW= 0 
New Load.1104653_3 Phases= 1  Bus1=1104653.3 kV= 13.2043879907621  XFKVA=50.000000 PF= 0.995192003593264  NumCust=0.333000 ! KW= 0 
New Load.25734639_3 Phases= 1  Bus1=25734639.3 kV= 13.2043879907621  XFKVA=75.000000 PF= 0.995192003593264  NumCust=5.000000 ! KW= 0 
New Load.25024995_3 Phases= 1  Bus1=25024995.3 kV= 13.2043879907621  XFKVA=75.000000 PF= 0.995192003593264  NumCust=2.000000 ! KW= 0 
New Load.26709740_3 Phases= 1  Bus1=26709740.3 kV= 13.2043879907621  XFKVA=100.000000 PF= 0.995192003593264  NumCust=6.000000 ! KW= 0 
New Load.26387814_2 Phases= 1  Bus1=26387814.2 kV= 13.2043879907621  XFKVA=50.000000 PF= 0.999995951852119  NumCust=6.000000 ! KW= 0 
New Load.1104671_1 Phases= 1  Bus1=1104671.1 kV= 13.2043879907621  XFKVA=25.000000 PF= 0.999939777925908  NumCust=2.000000 ! KW= 0 
New Load.26709766_3 Phases= 1  Bus1=26709766.3 kV= 13.2043879907621  XFKVA=100.000000 PF= 0.995192003593264  NumCust=7.000000 ! KW= 0 
New Load.25359969_1 Phases= 1  Bus1=25359969.1 kV= 13.2043879907621  XFKVA=50.000000 PF= 0.999939777925908  NumCust=9.000000 ! KW= 0 
New Load.25359972_1 Phases= 1  Bus1=25359972.1 kV= 13.2043879907621  XFKVA=50.000000 PF= 0.999939777925908  NumCust=7.000000 ! KW= 0 
New Load.25833129_1 Phases= 1  Bus1=25833129.1 kV= 13.2043879907621  XFKVA=50.000000 PF= 0.999939777925908  NumCust=4.000000 ! KW= 0 
New Load.1106143_3 Phases= 1  Bus1=1106143.3 kV= 13.2043879907621  XFKVA=37.500000 PF= 0.995192003593264  NumCust=2.000000 ! KW= 0 
New Load.26709781_3 Phases= 1  Bus1=26709781.3 kV= 13.2043879907621  XFKVA=100.000000 PF= 0.995192003593264  NumCust=3.000000 ! KW= 0 
New Load.25359968_1 Phases= 1  Bus1=25359968.1 kV= 13.2043879907621  XFKVA=50.000000 PF= 0.999939777925908  NumCust=9.000000 ! KW= 0 
New Load.26679487_1 Phases= 1  Bus1=26679487.1 kV= 13.2043879907621  XFKVA=100.000000 PF= 0.999939777925908  NumCust=6.000000 ! KW= 0 
New Load.26679492_1 Phases= 1  Bus1=26679492.1 kV= 13.2043879907621  XFKVA=50.000000 PF= 0.999939777925908  NumCust=6.000000 ! KW= 0 
New Load.25586104_1 Phases= 1  Bus1=25586104.1 kV= 13.2043879907621  XFKVA=50.000000 PF= 0.999939777925908  NumCust=6.000000 ! KW= 0 
New Load.25359988_1 Phases= 1  Bus1=25359988.1 kV= 13.2043879907621  XFKVA=50.000000 PF= 0.999939777925908  NumCust=8.000000 ! KW= 0 
New Load.25359970_1 Phases= 1  Bus1=25359970.1 kV= 13.2043879907621  XFKVA=50.000000 PF= 0.999939777925908  NumCust=8.000000 ! KW= 0 
New Load.25359973_1 Phases= 1  Bus1=25359973.1 kV= 13.2043879907621  XFKVA=50.000000 PF= 0.999939777925908  NumCust=9.000000 ! KW= 0 
New Load.1140270_3 Phases= 1  Bus1=1140270.3 kV= 13.2043879907621  XFKVA=25.000000 PF= 0.995192003593264  NumCust=2.000000 ! KW= 0 
New Load.26887559_1 Phases= 1  Bus1=26887559.1 kV= 13.2043879907621  XFKVA=25.000000 PF= 0.999939777925908  NumCust=3.000000 ! KW= 0 
New Load.25359971_1 Phases= 1  Bus1=25359971.1 kV= 13.2043879907621  XFKVA=25.000000 PF= 0.999939777925908  NumCust=3.000000 ! KW= 0 
New Load.25833119_1 Phases= 1  Bus1=25833119.1 kV= 13.2043879907621  XFKVA=100.000000 PF= 0.999939777925908  NumCust=6.000000 ! KW= 0 
New Load.25734561_2 Phases= 1  Bus1=25734561.2 kV= 13.2043879907621  XFKVA=50.000000 PF= 0.999995951852119  NumCust=8.000000 ! KW= 0 
New Load.1139895_3 Phases= 1  Bus1=1139895.3 kV= 13.2043879907621  XFKVA=75.000000 PF= 0.995192003593264  NumCust=4.000000 ! KW= 0 
New Load.25836854_2 Phases= 1  Bus1=25836854.2 kV= 13.2043879907621  XFKVA=25.000000 PF= 0.999995951852119  NumCust=4.000000 ! KW= 0 
New Load.26119675_3 Phases= 1  Bus1=26119675.3 kV= 13.2043879907621  XFKVA=15.000000 PF= 0.995192003593264  NumCust=0.000000 ! KW= 0 
New Load.25833131_1 Phases= 1  Bus1=25833131.1 kV= 13.2043879907621  XFKVA=50.000000 PF= 0.999939777925908  NumCust=2.000000 ! KW= 0 
New Load.25784511_1 Phases= 1  Bus1=25784511.1 kV= 13.2043879907621  XFKVA=100.000000 PF= 0.999939777925908  NumCust=8.000000 ! KW= 0 
New Load.103645570_2 Phases= 1  Bus1=103645570.2 kV= 13.2043879907621  XFKVA=75.000000 PF= 0.999995951852119  NumCust=0.000000 enable=F  ! KW= 0 
New Load.25586117_1 Phases= 1  Bus1=25586117.1 kV= 13.2043879907621  XFKVA=100.000000 PF= 0.999939777925908  NumCust=8.000000 ! KW= 0 
New Load.1140496_1 Phases= 1  Bus1=1140496.1 kV= 13.2043879907621  XFKVA=25.000000 PF= 0.999939777925908  NumCust=2.000000 ! KW= 0 
New Load.103666848_2 Phases= 1  Bus1=103666848.2 kV= 13.2043879907621  XFKVA=50.000000 PF= 0.999995951852119  NumCust=0.000000 enable=F  ! KW= 0 
New Load.25734607_3 Phases= 1  Bus1=25734607.3 kV= 13.2043879907621  XFKVA=50.000000 PF= 0.995192003593264  NumCust=5.000000 ! KW= 0 
New Load.103383286_3 Phases= 1  Bus1=103383286.3 kV= 13.2043879907621  XFKVA=50.000000 PF= 0.995192003593264  NumCust=6.000000 ! KW= 0 
New Load.1140305_3 Phases= 1  Bus1=1140305.3 kV= 13.2043879907621  XFKVA=25.000000 PF= 0.995192003593264  NumCust=4.000000 ! KW= 0 
New Load.25836861_2 Phases= 1  Bus1=25836861.2 kV= 13.2043879907621  XFKVA=25.000000 PF= 0.999995951852119  NumCust=4.000000 ! KW= 0 
New Load.25734539_2 Phases= 1  Bus1=25734539.2 kV= 13.2043879907621  XFKVA=50.000000 PF= 0.999995951852119  NumCust=5.000000 ! KW= 0 
New Load.26555820_1 Phases= 1  Bus1=26555820.1 kV= 13.2043879907621  XFKVA=100.000000 PF= 0.999939777925908  NumCust=12.000000 ! KW= 0 
New Load.25734540_2 Phases= 1  Bus1=25734540.2 kV= 13.2043879907621  XFKVA=50.000000 PF= 0.999995951852119  NumCust=7.000000 ! KW= 0 
New Load.1141078_1 Phases= 1  Bus1=1141078.1 kV= 13.2043879907621  XFKVA=15.000000 PF= 0.999939777925908  NumCust=2.000000 ! KW= 0 
New Load.25858576_1 Phases= 1  Bus1=25858576.1 kV= 13.2043879907621  XFKVA=100.000000 PF= 0.999939777925908  NumCust=7.000000 ! KW= 0 
New Load.26281716_3 Phases= 1  Bus1=26281716.3 kV= 13.2043879907621  XFKVA=37.500000 PF= 0.995192003593264  NumCust=4.000000 ! KW= 0 
New Load.25734587_1 Phases= 1  Bus1=25734587.1 kV= 13.2043879907621  XFKVA=75.000000 PF= 0.999939777925908  NumCust=8.000000 ! KW= 0 
New Load.26281720_1 Phases= 1  Bus1=26281720.1 kV= 13.2043879907621  XFKVA=37.500000 PF= 0.999939777925908  NumCust=4.000000 ! KW= 0 
New Load.26887563_2 Phases= 1  Bus1=26887563.2 kV= 13.2043879907621  XFKVA=50.000000 PF= 0.999995951852119  NumCust=6.000000 ! KW= 0 
New Load.25426806_1 Phases= 1  Bus1=25426806.1 kV= 13.2043879907621  XFKVA=100.000000 PF= 0.999939777925908  NumCust=9.000000 ! KW= 0 
New Load.1105587_1 Phases= 1  Bus1=1105587.1 kV= 13.2043879907621  XFKVA=25.000000 PF= 0.999939777925908  NumCust=1.000000 ! KW= 0 
New Load.25497403_1 Phases= 1  Bus1=25497403.1 kV= 13.2043879907621  XFKVA=100.000000 PF= 0.999939777925908  NumCust=6.000000 ! KW= 0 
New Load.103626606_2 Phases= 1  Bus1=103626606.2 kV= 13.2043879907621  XFKVA=100.000000 PF= 0.999995951852119  NumCust=0.000000 enable=F  ! KW= 0 
New Load.103536776_2 Phases= 1  Bus1=103536776.2 kV= 13.2043879907621  XFKVA=50.000000 PF= 0.999995951852119  NumCust=0.000000 enable=F  ! KW= 0 
New Load.103359454_2 Phases= 1  Bus1=103359454.2 kV= 13.2043879907621  XFKVA=50.000000 PF= 0.999995951852119  NumCust=5.000000 ! KW= 0 
New Load.26356911_1 Phases= 1  Bus1=26356911.1 kV= 13.2043879907621  XFKVA=50.000000 PF= 0.999939777925908  NumCust=4.000000 ! KW= 0 
New Load.103383290_3 Phases= 1  Bus1=103383290.3 kV= 13.2043879907621  XFKVA=75.000000 PF= 0.995192003593264  NumCust=8.000000 ! KW= 0 
New Load.26859626_1 Phases= 1  Bus1=26859626.1 kV= 13.2043879907621  XFKVA=50.000000 PF= 0.999939777925908  NumCust=8.000000 ! KW= 0 
New Load.103537127_1 Phases= 1  Bus1=103537127.1 kV= 13.2043879907621  XFKVA=50.000000 PF= 0.999939777925908  NumCust=0.000000 ! KW= 0 
New Load.25858571_1 Phases= 1  Bus1=25858571.1 kV= 13.2043879907621  XFKVA=50.000000 PF= 0.999939777925908  NumCust=6.000000 ! KW= 0 
New Load.26128170_2 Phases= 1  Bus1=26128170.2 kV= 13.2043879907621  XFKVA=50.000000 PF= 0.999995951852119  NumCust=6.000000 ! KW= 0 
New Load.26896052_1 Phases= 1  Bus1=26896052.1 kV= 13.2043879907621  XFKVA=50.000000 PF= 0.999939777925908  NumCust=4.000000 ! KW= 0 
New Load.25858574_1 Phases= 1  Bus1=25858574.1 kV= 13.2043879907621  XFKVA=100.000000 PF= 0.999939777925908  NumCust=8.000000 ! KW= 0 
New Load.103626614_2 Phases= 1  Bus1=103626614.2 kV= 13.2043879907621  XFKVA=75.000000 PF= 0.999995951852119  NumCust=0.000000 enable=F  ! KW= 0 
New Load.25858575_1 Phases= 1  Bus1=25858575.1 kV= 13.2043879907621  XFKVA=50.000000 PF= 0.999939777925908  NumCust=5.000000 ! KW= 0 
New Load.25631620_2 Phases= 1  Bus1=25631620.2 kV= 13.2043879907621  XFKVA=167.000000 PF= 0.999995951852119  NumCust=21.000000 ! KW= 0 
New Load.26859807_1 Phases= 1  Bus1=26859807.1 kV= 13.2043879907621  XFKVA=50.000000 PF= 0.999939777925908  NumCust=3.000000 ! KW= 0 
New Load.103321743_1 Phases= 1  Bus1=103321743.1 kV= 13.2043879907621  XFKVA=100.000000 PF= 0.999939777925908  NumCust=8.000000 ! KW= 0 
New Load.25858573_1 Phases= 1  Bus1=25858573.1 kV= 13.2043879907621  XFKVA=50.000000 PF= 0.999939777925908  NumCust=4.000000 ! KW= 0 
New Load.25631619_2 Phases= 1  Bus1=25631619.2 kV= 13.2043879907621  XFKVA=167.000000 PF= 0.999995951852119  NumCust=35.000000 ! KW= 0 
New Load.25631615_1 Phases= 1  Bus1=25631615.1 kV= 13.2043879907621  XFKVA=167.000000 PF= 0.999939777925908  NumCust=1.000000 ! KW= 0 
New Load.25858578_1 Phases= 1  Bus1=25858578.1 kV= 13.2043879907621  XFKVA=100.000000 PF= 0.999939777925908  NumCust=8.000000 ! KW= 0 
New Load.1140700_3 Phases= 1  Bus1=1140700.3 kV= 13.2043879907621  XFKVA=37.500000 PF= 0.995192003593264  NumCust=0.000000 ! KW= 0 
New Load.1140844_1 Phases= 1  Bus1=1140844.1 kV= 13.2043879907621  XFKVA=15.000000 PF= 0.999939777925908  NumCust=0.000000 ! KW= 0 
New Load.26859622_1 Phases= 1  Bus1=26859622.1 kV= 13.2043879907621  XFKVA=50.000000 PF= 0.999939777925908  NumCust=7.000000 ! KW= 0 
New Load.103527268_3 Phases= 1  Bus1=103527268.3 kV= 13.2043879907621  XFKVA=100.000000 PF= 0.995192003593264  NumCust=5.000000 ! KW= 0 
New Load.1140285_3 Phases= 1  Bus1=1140285.3 kV= 13.2043879907621  XFKVA=25.000000 PF= 0.995192003593264  NumCust=1.000000 ! KW= 0 
New Load.25631611_1 Phases= 1  Bus1=25631611.1 kV= 13.2043879907621  XFKVA=167.000000 PF= 0.999939777925908  NumCust=32.000000 ! KW= 0 
New Load.1140467_3 Phases= 1  Bus1=1140467.3 kV= 13.2043879907621  XFKVA=15.000000 PF= 0.995192003593264  NumCust=1.000000 ! KW= 0 
New Load.25734563_2 Phases= 1  Bus1=25734563.2 kV= 13.2043879907621  XFKVA=50.000000 PF= 0.999995951852119  NumCust=0.500000 ! KW= 0 
New Load.25734563_3 Phases= 1  Bus1=25734563.3 kV= 13.2043879907621  XFKVA=50.000000 PF= 0.995192003593264  NumCust=0.500000 ! KW= 0 
New Load.1140511_3 Phases= 1  Bus1=1140511.3 kV= 13.2043879907621  XFKVA=15.000000 PF= 0.995192003593264  NumCust=1.000000 ! KW= 0 
New Load.26907383_3 Phases= 1  Bus1=26907383.3 kV= 13.2043879907621  XFKVA=50.000000 PF= 0.995192003593264  NumCust=0.000000 ! KW= 0 
New Load.1105452_3 Phases= 1  Bus1=1105452.3 kV= 13.2043879907621  XFKVA=37.500000 PF= 0.995192003593264  NumCust=4.000000 ! KW= 0 
New Load.26281718_1 Phases= 1  Bus1=26281718.1 kV= 13.2043879907621  XFKVA=15.000000 PF= 0.999939777925908  NumCust=1.000000 ! KW= 0 
New Load.103383297_3 Phases= 1  Bus1=103383297.3 kV= 13.2043879907621  XFKVA=75.000000 PF= 0.995192003593264  NumCust=9.000000 ! KW= 0 
New Load.25631613_1 Phases= 1  Bus1=25631613.1 kV= 13.2043879907621  XFKVA=167.000000 PF= 0.999939777925908  NumCust=23.000000 ! KW= 0 
New Load.25631612_1 Phases= 1  Bus1=25631612.1 kV= 13.2043879907621  XFKVA=167.000000 PF= 0.999939777925908  NumCust=20.000000 ! KW= 0 
New Load.1105038_1 Phases= 1  Bus1=1105038.1 kV= 13.2043879907621  XFKVA=37.500000 PF= 0.999939777925908  NumCust=0.000000 ! KW= 0 
New Load.25359989_1 Phases= 1  Bus1=25359989.1 kV= 13.2043879907621  XFKVA=25.000000 PF= 0.999939777925908  NumCust=5.000000 ! KW= 0 
New Load.1106212_3 Phases= 1  Bus1=1106212.3 kV= 13.2043879907621  XFKVA=15.000000 PF= 0.995192003593264  NumCust=2.000000 ! KW= 0 
New Load.25025000_3 Phases= 1  Bus1=25025000.3 kV= 13.2043879907621  XFKVA=25.000000 PF= 0.995192003593264  NumCust=1.000000 ! KW= 0 
New Load.103536773_2 Phases= 1  Bus1=103536773.2 kV= 13.2043879907621  XFKVA=50.000000 PF= 0.999995951852119  NumCust=0.000000 enable=F  ! KW= 0 
New Load.25024991_3 Phases= 1  Bus1=25024991.3 kV= 13.2043879907621  XFKVA=50.000000 PF= 0.995192003593264  NumCust=3.000000 ! KW= 0 
New Load.1105450_3 Phases= 1  Bus1=1105450.3 kV= 13.2043879907621  XFKVA=37.500000 PF= 0.995192003593264  NumCust=4.000000 ! KW= 0 
New Load.103537114_1 Phases= 1  Bus1=103537114.1 kV= 13.2043879907621  XFKVA=50.000000 PF= 0.999939777925908  NumCust=0.000000 enable=F  ! KW= 0 
New Load.1139951_3 Phases= 1  Bus1=1139951.3 kV= 13.2043879907621  XFKVA=75.000000 PF= 0.995192003593264  NumCust=7.000000 ! KW= 0 
New Load.25885367_1 Phases= 1  Bus1=25885367.1 kV= 13.2043879907621  XFKVA=10.000000 PF= 0.999939777925908  NumCust=0.000000 ! KW= 0 
New Load.1140071_3 Phases= 1  Bus1=1140071.3 kV= 13.2043879907621  XFKVA=50.000000 PF= 0.995192003593264  NumCust=7.000000 ! KW= 0 
New Load.103383294_3 Phases= 1  Bus1=103383294.3 kV= 13.2043879907621  XFKVA=100.000000 PF= 0.995192003593264  NumCust=10.000000 ! KW= 0 
New Load.25360255_3 Phases= 1  Bus1=25360255.3 kV= 13.2043879907621  XFKVA=50.000000 PF= 0.995192003593264  NumCust=9.000000 ! KW= 0 
New Load.103537129_1 Phases= 1  Bus1=103537129.1 kV= 13.2043879907621  XFKVA=50.000000 PF= 0.999939777925908  NumCust=6.000000 ! KW= 0 
New Load.1104997_1 Phases= 1  Bus1=1104997.1 kV= 13.2043879907621  XFKVA=25.000000 PF= 0.999939777925908  NumCust=0.333000 ! KW= 0 
New Load.1104997_2 Phases= 1  Bus1=1104997.2 kV= 13.2043879907621  XFKVA=25.000000 PF= 0.999995951852119  NumCust=0.333000 ! KW= 0 
New Load.1104997_3 Phases= 1  Bus1=1104997.3 kV= 13.2043879907621  XFKVA=25.000000 PF= 0.995192003593264  NumCust=0.333000 ! KW= 0 
New Load.1140272_3 Phases= 1  Bus1=1140272.3 kV= 13.2043879907621  XFKVA=37.500000 PF= 0.995192003593264  NumCust=4.000000 ! KW= 0 
!New Load.103649892_1 Phases= 1  Bus1=103649892.1 kV= 13.2043879907621  XFKVA=75.000000 PF= 0.999939777925908  NumCust=0.000000 enable=F  ! KW= 0 
New Load.1106141_3 Phases= 1  Bus1=1106141.3 kV= 13.2043879907621  XFKVA=25.000000 PF= 0.995192003593264  NumCust=2.000000 ! KW= 0 
New Load.103117923_1 Phases= 1  Bus1=103117923.1 kV= 13.2043879907621  XFKVA=37.500000 PF= 0.999939777925908  NumCust=0.000000 ! KW= 0 
New Load.103413069_2 Phases= 1  Bus1=103413069.2 kV= 13.2043879907621  XFKVA=50.000000 PF= 0.999995951852119  NumCust=0.000000 ! KW= 0 
New Load.103307205_1 Phases= 1  Bus1=103307205.1 kV= 13.2043879907621  XFKVA=75.000000 PF= 0.999939777925908  NumCust=6.000000 ! KW= 0 
New Load.26887525_2 Phases= 1  Bus1=26887525.2 kV= 13.2043879907621  XFKVA=50.000000 PF= 0.999995951852119  NumCust=4.000000 ! KW= 0 
New Load.25734559_2 Phases= 1  Bus1=25734559.2 kV= 13.2043879907621  XFKVA=50.000000 PF= 0.999995951852119  NumCust=9.000000 ! KW= 0 
!New Load.103649896_1 Phases= 1  Bus1=103649896.1 kV= 13.2043879907621  XFKVA=75.000000 PF= 0.999939777925908  NumCust=0.000000 enable=F  ! KW= 0 
New Load.25836862_2 Phases= 1  Bus1=25836862.2 kV= 13.2043879907621  XFKVA=50.000000 PF= 0.999995951852119  NumCust=6.000000 ! KW= 0 
New Load.25876078_3 Phases= 1  Bus1=25876078.3 kV= 13.2043879907621  XFKVA=100.000000 PF= 0.995192003593264  NumCust=10.000000 ! KW= 0 
New Load.25734586_1 Phases= 1  Bus1=25734586.1 kV= 13.2043879907621  XFKVA=75.000000 PF= 0.999939777925908  NumCust=8.000000 ! KW= 0 
New Load.26776425_1 Phases= 1  Bus1=26776425.1 kV= 13.2043879907621  XFKVA=50.000000 PF= 0.999939777925908  NumCust=2.000000 ! KW= 0 
New Load.25734566_3 Phases= 1  Bus1=25734566.3 kV= 13.2043879907621  XFKVA=50.000000 PF= 0.995192003593264  NumCust=7.000000 ! KW= 0 
New Load.25734569_3 Phases= 1  Bus1=25734569.3 kV= 13.2043879907621  XFKVA=50.000000 PF= 0.995192003593264  NumCust=6.000000 ! KW= 0 