// *******************************
// Defines Line names (Sections) for fused and regulators
New Line.105495__103374096 Bus1=103007630 Bus2=103135359 LineCode=NONE
New Line.12116__2633487 Bus1=26281708 Bus2=1105528 LineCode=NONE
New Line.13L570__2701321 Bus1=26679485 Bus2=27137075 LineCode=NONE
New Line.18KQ20_186Q93_105985159 Bus1=103651947 Bus2=103527267 LineCode=NONE
New Line.7NX16__2654685 Bus1=25734564 Bus2=25507954 LineCode=NONE
New Line.106804__2701104 Bus1=27136858 Bus2=25836854 LineCode=NONE
New Line.106804__2701105 Bus1=25836854 Bus2=27136859 LineCode=NONE
New Line.144378__2701336 Bus1=26776430 Bus2=27137090 LineCode=NONE
New Line.106804__2701106 Bus1=25836854 Bus2=27136860 LineCode=NONE
New Line.13L570__2701322 Bus1=27137076 Bus2=26679485 LineCode=NONE
New Line.149479_D884K_2679897 Bus1=25783320 Bus2=26854287 LineCode=NONE
New Line.18GC33__105326050 Bus1=103626605 Bus2=103626606 LineCode=NONE
New Line.7145K__2668244 Bus1=1106214 Bus2=26160639 LineCode=NONE
New Line.8R717_8R719_2657823 Bus1=26991515 Bus2=26991512 LineCode=NONE
New Line.106800__2701100 Bus1=25836861 Bus2=27136854 LineCode=NONE
New Line.11E480_11E481_2667684 Bus1=103125599 Bus2=27136877 LineCode=NONE
New Line.17KH67__104218229 Bus1=103359063 Bus2=103359065 LineCode=NONE
New Line.G253K__2633500 Bus1=25734640 Bus2=1105228 LineCode=NONE
New Line.NV06__2635241 Bus1=25024993 Bus2=1139641 LineCode=NONE
New Line.186Q94__104672522 Bus1=103527277 Bus2=103527276 LineCode=NONE
New Line.BUS_103098782 Bus1=103048714 Bus2=103048715 LineCode=NONE
New Line.14LH99__2680807 Bus1=26896053 Bus2=26896074 LineCode=NONE
New Line.J381K_J381K_2626999 Bus1=1105315 Bus2=T4795B23_10000051 LineCode=NONE
New Line.U405BH_U406BH_103374222 Bus1=103119508 Bus2=1141046 LineCode=NONE
New Line.186Q94__104672521 Bus1=103527276 Bus2=103527275 LineCode=NONE
New Line.U498BH__2634398 Bus1=1140417 Bus2=1140419 LineCode=NONE
New Line.BUS_104712819 Bus1=103543472 Bus2=T4795B23_10000049
New Line.15TN71_15TN72_103913787 Bus1=103265150 Bus2=103265149
New Line.8EK66_8EK67_2662319 Bus1=27136728 Bus2=27136701
New Line.BUS_103388664 Bus1=103121474 Bus2=103121475
New Line.7353K__2635246 Bus1=1104705 Bus2=1104706
New Line.G9L65_17Q665_2681054 Bus1=103041881 Bus2=103413875
New Line.17MN18__104282587 Bus1=103383300 Bus2=103383301
New Line.U399BH_U403BH_2628256 Bus1=1141029 Bus2=1141031
New Line.17MN18__104282586 Bus1=103383301 Bus2=103383302
New Line.184Q68_183Y93_104712795 Bus1=103543441 Bus2=103543459
New Line.G259K__2633473 Bus1=1105218 Bus2=1105219
New Line.U768BH_U770BH_2626908 Bus1=1140819 Bus2=1140809
New Line.CBR27__2700959 Bus1=1105418 Bus2=27136713
New Line.CBR27__2700958 Bus1=27136712 Bus2=1105418
New Line.D118K_D117K_2626987 Bus1=27136777 Bus2=27136765
New Line.D106K_12128_2626989 Bus1=27136666 Bus2=27136663
New Line.132351_132352_2675025 Bus1=26999465 Bus2=26999474
New Line.9AM82_D883K_2659664 Bus1=25631624 Bus2=26999871
New Line.A984BH_86093_2656902 Bus1=25429365 Bus2=27135962
New Line.B122K__2632717 Bus1=1106342 Bus2=1106343
New Line.183Y96__104696222 Bus1=103537190 Bus2=103537122
New Line.106797__2662470 Bus1=25836866 Bus2=25836874
New Line.107B89__2666337 Bus1=25879303 Bus2=26049901
New Line.11E479__2667681 Bus1=26128165 Bus2=26128166
New Line.13PX76_13PX77_2676794 Bus1=27000196 Bus2=27000199
New Line.14Q055__103041320 Bus1=103016834 Bus2=103016849
New Line.14Q055__103041321 Bus1=103016839 Bus2=103016834
New Line.183Y96__104696221 Bus1=103537122 Bus2=103537696
New Line.7228K_9AM77_2659652 Bus1=25631627 Bus2=26999873
New Line.G2403__2693084 Bus1=1140149 Bus2=26999407
New Line.13PX85_7231K_2676812 Bus1=26709862 Bus2=27000178
New Line.BUS_103098768 Bus1=103048712 Bus2=103048711
New Line.8CM13_7375K_2657047 Bus1=1104998 Bus2=25426801
New Line.G2402__2693085 Bus1=25747796 Bus2=26999408
New Line.183Y13__104695299 Bus1=103536788 Bus2=103536875
New Line.G255K__2633499 Bus1=1105257 Bus2=1105258
New Line.106796__2662469 Bus1=25836865 Bus2=25836877
New Line.18GC39_18GC40_105326041 Bus1=103626617 Bus2=103626615
New Line.7RE77_7TX21_2656196 Bus1=25360359 Bus2=27136932
New Line.U563BH_U564BH_2628330 Bus1=1140225 Bus2=1140224
New Line.6TE34_6TE39_2655975 Bus1=27136887 Bus2=27136890
New Line.8DR30__2693046 Bus1=25426802 Bus2=26999369
New Line.G2402__2693086 Bus1=26999409 Bus2=25747796
New Line.G2403__2693083 Bus1=26999406 Bus2=1140149
New Line.119P96_13XH06_2677732 Bus1=26999477 Bus2=26755991
New Line.6MG73_6MG74_2653436 Bus1=25173482 Bus2=6MG73_2667352
New Line.8R719__2657827 Bus1=25490382 Bus2=25490417
New Line.85373_13F675_2657449 Bus1=103121256 Bus2=27137027
New Line.8DR30__2693045 Bus1=26999368 Bus2=25426802
New Line.A543BH__2634446 Bus1=1139897 Bus2=1139898
New Line.14FX05_14FX04_2679999 Bus1=27136524 Bus2=27136494
New Line.134088_133Y84_2676509 Bus1=103121503 Bus2=27136946
New Line.8DR36__2693047 Bus1=25497403 Bus2=26999370
New Line.5DP96__2653504 Bus1=25734551 Bus2=25104384
New Line.7NX73__2692946 Bus1=25734565 Bus2=103079718
New Line.9WA93_116C33_2663184 Bus1=27136721 Bus2=27137278
New Line.U570BH_A536BH_2628380 Bus1=1140122 Bus2=26999161
New Line.183Y90_183Y09_104696276 Bus1=103537136 Bus2=103536814
New Line.18KP63__105820224 Bus1=103645566 Bus2=103645568
New Line.7NX73__2692947 Bus1=26999270 Bus2=25734565
New Line.U586BH__2634420 Bus1=1140112 Bus2=1140113
New Line.144380__2678080 Bus1=26776418 Bus2=26776419
New Line.U538BH_U540BH_2628334 Bus1=1140285 Bus2=1140272
New Line.9WF49__2701060 Bus1=25876081 Bus2=27136814
New Line.5S377_7372K_2628415 Bus1=1104677 Bus2=1104678
New Line.102L21__2701174 Bus1=26755198 Bus2=27136928
New Line.107B90_107C01_2663402 Bus1=25879307 Bus2=25885367
New Line.102L21__2701175 Bus1=27136929 Bus2=26755198
New Line.17KH67__104218262 Bus1=103359063 Bus2=103359064
New Line.7NW83__2654656 Bus1=25734560 Bus2=25247353
New Line.U406BH__2634365 Bus1=1141046 Bus2=1141047
New Line.17KH67__104218263 Bus1=103359062 Bus2=103359063
New Line.U394BH_U395BH_2628252 Bus1=1141306 Bus2=103119511
New Line.17MN18__104282528 Bus1=103383301 Bus2=103383303
New Line.U754BH__103402731 Bus1=25879306 Bus2=103125270
New Line.A452K__2632719 Bus1=1106347 Bus2=1106348
New Line.U764BH__2633401 Bus1=1140821 Bus2=1140822
New Line.102L19__2701170 Bus1=27136924 Bus2=26755197
New Line.144381__2678078 Bus1=26776411 Bus2=26776412
New Line.8DR36__2693048 Bus1=26999371 Bus2=25497403
New Line.8DT97__2693891 Bus1=27000214 Bus2=T4795B23_10000002
New Line.102L19__2701171 Bus1=26755197 Bus2=27136925
New Line.13PX97_13PX90_2676776 Bus1=27000186 Bus2=27000189
New Line.C1F95__2633417 Bus1=25734580 Bus2=1106182
New Line.14L345__2680576 Bus1=26887526 Bus2=26887540
New Line.84Q26_7NX60_2656157 Bus1=26999354 Bus2=26999350
New Line.7364K_7365K_2629427 Bus1=1104964 Bus2=1104965
New Line.14G317__2679983 Bus1=27146923 Bus2=103016798
New Line.14G317__2679982 Bus1=103036415 Bus2=27146922
New Line.U602BH__2692833 Bus1=26999156 Bus2=1139987
New Line.14G317__2679985 Bus1=27146925 Bus2=103089681
New Line.14Q049__104261805 Bus1=103294963 Bus2=103294677
New Line.U600BH__2692822 Bus1=26999145 Bus2=1140076
New Line.14G317__2679984 Bus1=27146924 Bus2=103089685
New Line.14L465__2700819 Bus1=103045212 Bus2=26887559
New Line.18KQ21_183907_105985151 Bus1=103651945 Bus2=103529698
New Line.BUS_103041238 Bus1=103016792 Bus2=103016797
New Line.D112K__2633462 Bus1=25734606 Bus2=1106081
New Line.U600BH__2692821 Bus1=1140076 Bus2=26999144
New Line.0M737__2633426 Bus1=25885435 Bus2=1140477
New Line.13PX78_13PX80_2676800 Bus1=27000202 Bus2=27000205
New Line.8DR41__2657053 Bus1=25426804 Bus2=25426812
New Line.9WA92__2663191 Bus1=25873711 Bus2=25873741
New Line.BUS_103041237 Bus1=103016794 Bus2=103294963
New Line.PBB36__2635209 Bus1=25234913 Bus2=1140004
New Line.132359__2673910 Bus1=26555782 Bus2=26555783
New Line.18LL89_18LL88_105931316 Bus1=103649883 Bus2=103649893
New Line.9AM84__2693537 Bus1=25631609 Bus2=26999860
New Line.BUS_103041236 Bus1=103016794 Bus2=103294961
New Line.102L18__2701168 Bus1=25750597 Bus2=27136922
New Line.9AM84__2693536 Bus1=26999859 Bus2=25631609
New Line.9AM85__2693535 Bus1=25631608 Bus2=26999858
New Line.9AM89__2693539 Bus1=25631613 Bus2=26999862
New Line.BUS_103041235 Bus1=103016793 Bus2=103016792
New Line.102L18__2701169 Bus1=27136923 Bus2=25750597
New Line.9AM85__2693534 Bus1=26999857 Bus2=25631608
New Line.9AM89__2693538 Bus1=26999861 Bus2=25631613
New Line.U602BH__2692835 Bus1=1139987 Bus2=26999158
New Line.13PX80_13PX81_2676802 Bus1=27000112 Bus2=27000204
New Line.9WA93__2663190 Bus1=25873713 Bus2=25873745
New Line.9WF47__2700945 Bus1=27136699 Bus2=25876080
New Line.U602BH__2692834 Bus1=1139987 Bus2=26999157
New Line.U880BH__2632712 Bus1=1141080 Bus2=25498469
New Line.158L56_U571BH_103537236 Bus1=103160088 Bus2=26027072
New Line.8DR47__2657052 Bus1=25426805 Bus2=25426814
New Line.9WF47__2700944 Bus1=27136698 Bus2=25876080
New Line.8DT82__2657110 Bus1=25734570 Bus2=25443588
New Line.BUS_2707110 Bus1=27146931 Bus2=27146927
New Line.132364__2673920 Bus1=26555809 Bus2=26615863
New Line.14L341__2680572 Bus1=26887522 Bus2=T4795B23_10000039
New Line.9WF47__2700946 Bus1=25876080 Bus2=27136700
New Line.106797_106795_2662456 Bus1=27136875 Bus2=27136871
New Line.13L570_13L571_2676125 Bus1=27137075 Bus2=27137078
New Line.144378__2678084 Bus1=26776430 Bus2=26776431
New Line.18GC40__105325982 Bus1=103626618 Bus2=103626620
New Line.133Y83_133Y82_2674184 Bus1=27136948 Bus2=27136951
New Line.17Q660__104378557 Bus1=103413072 Bus2=103413063
New Line.18KP61_18KQ21_105820251 Bus1=103645571 Bus2=103651945
New Line.7MX03__2656002 Bus1=25356093 Bus2=25356100
New Line.15TN75_17CA01_103913826 Bus1=103297397 Bus2=103265168
New Line.17KH66__104218227 Bus1=103359052 Bus2=103359054
New Line.7TX18_7WL56_2656205 Bus1=27136908 Bus2=103125604
New Line.14L810__2700860 Bus1=103048713 Bus2=103048712
New Line.7MX02__2656003 Bus1=25356096 Bus2=25356097
New Line.C1F95__2700899 Bus1=27136653 Bus2=25734580
New Line.107B88__103402724 Bus1=1140790 Bus2=103125269
New Line.14NJ19__103098846 Bus1=103041526 Bus2=103041531
New Line.14Q054__103041306 Bus1=103016829 Bus2=103016827
New Line.5DP92_5DP93_2664342 Bus1=26999484 Bus2=26999491
New Line.A449K_A450K_2626959 Bus1=1106195 Bus2=1106193
New Line.14MD35__103098783 Bus1=103048715 Bus2=T4795B23_10000005
New Line.14Q054__103041304 Bus1=103016827 Bus2=103016831
New Line.17MN22__104282536 Bus1=103383282 Bus2=103383284
New Line.132365__2673918 Bus1=26555802 Bus2=26555803
New Line.144379_144378_2678083 Bus1=27137090 Bus2=27137096
New Line.14Q054__103041305 Bus1=103016827 Bus2=103016838
New Line.14L466__2700821 Bus1=103125256 Bus2=26887560
New Line.7MX01__2656001 Bus1=25356091 Bus2=25356102
New Line.A456K__2668248 Bus1=26281717 Bus2=26165251
New Line.U535BH_U536BH_2628327 Bus1=1140295 Bus2=1140289
New Line.17KH64_17KH65_104218257 Bus1=103359455 Bus2=103359055
New Line.132361__2673916 Bus1=26555797 Bus2=26555798
New Line.7361K_A842K_2629431 Bus1=1104953 Bus2=1104951
New Line.14L466__2700822 Bus1=26887560 Bus2=27136576
New Line.186Q95__104672520 Bus1=103527273 Bus2=103527272
New Line.132356__2673904 Bus1=26555762 Bus2=26555763
New Line.2YV80__2634423 Bus1=25234912 Bus2=1140054
New Line.BUS_105436413 Bus1=103631333 Bus2=103631332
New Line.6TD35__2665987 Bus1=26037868 Bus2=T4795B23_10000038
New Line.8DW53__103222930 Bus1=103079712 Bus2=103079707
New Line.107B88_107B89_2663384 Bus1=1140790 Bus2=25879303
New Line.A649K_12122_2626929 Bus1=27136651 Bus2=27136656
New Line.B324K_B325K_2626951 Bus1=1106175 Bus2=1106172
New Line.6TE39_6TE35_2655976 Bus1=27136889 Bus2=27136895
New Line.U498BH__2636914 Bus1=1140417 Bus2=1140418
New Line.17MN19__104282580 Bus1=103383279 Bus2=103383280
New Line.7TX20__2701182 Bus1=27136936 Bus2=25360255
New Line.9WA92_116C33_2663183 Bus1=27137264 Bus2=27136720
New Line.D862K_12132_2628376 Bus1=26999233 Bus2=27136637
New Line.11E480__103404104 Bus1=26128170 Bus2=103125594
New Line.13PX85__2676811 Bus1=26709857 Bus2=26709858
New Line.7378K__2634464 Bus1=1104995 Bus2=1104996
New Line.7TX20__2701181 Bus1=25360255 Bus2=27136935
New Line.18PH79_18PH81_104696340 Bus1=103537162 Bus2=103537163
New Line.9AM84_D883K_2659651 Bus1=25631622 Bus2=26999859
New Line.9WA88__2700964 Bus1=25873704 Bus2=27136718
New Line.17DH84__104079474 Bus1=103307201 Bus2=103307203
New Line.G250K__2692955 Bus1=26999278 Bus2=25734637
New Line.7350K_18FA94_105436426 Bus1=1104735 Bus2=103631344
New Line.G250K__2692956 Bus1=25734637 Bus2=26999279
New Line.U588BH__2693010 Bus1=1140108 Bus2=26999333
New Line.7NX29_7NX10_2654660 Bus1=26999348 Bus2=103079725
New Line.9WA88__2700963 Bus1=27136717 Bus2=25873704
New Line.13L574_13L575_2676129 Bus1=27137072 Bus2=27137083
New Line.U491BH_U493BH_2628301 Bus1=1140710 Bus2=1140685
New Line.183Y12__104695296 Bus1=103536834 Bus2=103536786
New Line.183Y12__104695295 Bus1=103536786 Bus2=103536832
New Line.183Y12__104695294 Bus1=103536786 Bus2=103536874
New Line.7372K__2634473 Bus1=1104677 Bus2=25556612
New Line.7BE81__2654340 Bus1=25734547 Bus2=25221791
New Line.ABE44K__2634434 Bus1=1105216 Bus2=1105217
New Line.13PX84__2676809 Bus1=26709852 Bus2=26709853
New Line.13PX91_13PX92_2676780 Bus1=27000169 Bus2=27000166
New Line.183Y95__104696226 Bus1=103537123 Bus2=103537714
New Line.7139K__2633411 Bus1=1106104 Bus2=1106105
New Line.PME14__2692868 Bus1=26999191 Bus2=25024992
New Line.13PX80__2676801 Bus1=26709829 Bus2=26709830
New Line.183Y95__104696227 Bus1=103537123 Bus2=103537191
New Line.PME14__2692869 Bus1=25024992 Bus2=26999192
New Line.13PX89_13PX96_2676769 Bus1=27000182 Bus2=27000185
New Line.U339BH__2665162 Bus1=103007628 Bus2=1141069
New Line.14T643_14DW88_103076978 Bus1=26859784 Bus2=103048756
New Line.5LT91_A543BH_2628379 Bus1=26999169 Bus2=26999207
New Line.U569BH_158L55_2628362 Bus1=1140123 Bus2=103160087
New Line.U758BH__2633423 Bus1=1140498 Bus2=1140499
New Line.5LT91__2692884 Bus1=26999207 Bus2=25024996
New Line.158L52_U474BH_103374496 Bus1=103117935 Bus2=103117936
New Line.5LT91__2692885 Bus1=25024996 Bus2=26999208
New Line.13F675__2701378 Bus1=103121261 Bus2=103121256
New Line.15TN74__103913538 Bus1=103265086 Bus2=103265159
New Line.183Y95__104696228 Bus1=103537194 Bus2=103537123
New Line.6TD34_U572K_2665355 Bus1=26027224 Bus2=25240433
New Line.15TN74__103913539 Bus1=103265162 Bus2=103265086
New Line.18KP62__105820222 Bus1=103645574 Bus2=103645576
New Line.A543BH__2692847 Bus1=26999170 Bus2=1139897
New Line.7NX60__2654661 Bus1=25734531 Bus2=25307454
New Line.84Q24__2693040 Bus1=26999363 Bus2=25734529
New Line.A453K__2636718 Bus1=1106344 Bus2=1106345
New Line.A543BH__2692846 Bus1=1139897 Bus2=26999169
New Line.U774BH__2633404 Bus1=1140852 Bus2=1140853
New Line.119P96__2667830 Bus1=26139234 Bus2=26139235
New Line.15TN74__103913537 Bus1=103265086 Bus2=103265161
New Line.17BR89_17BR90_104028965 Bus1=103294683 Bus2=103294689
New Line.102L16__2661144 Bus1=25750595 Bus2=25750609
New Line.7NX16_7NX73_2655322 Bus1=26999268 Bus2=26999270
New Line.D884K_13PX87_2676759 Bus1=26709736 Bus2=27000190
New Line.7NX02__2654658 Bus1=25734562 Bus2=25238965
New Line.7WL56__2656215 Bus1=25360258 Bus2=25360340
New Line.7WL57__2656216 Bus1=25360259 Bus2=25360343
New Line.A538BH__2634444 Bus1=1139960 Bus2=1139961
New Line.D113K_D112K_2626978 Bus1=27136678 Bus2=27136675
New Line.G257K_G256K_2627023 Bus1=27136688 Bus2=27136691
New Line.U543BH_U547BH_2628336 Bus1=1140222 Bus2=1140195
New Line.U551BH__2634412 Bus1=1140193 Bus2=1140194
New Line.U878BH__2632710 Bus1=1140874 Bus2=1140875
New Line.186Q95_18LW04_104672512 Bus1=103651943 Bus2=103527273
New Line.6TE37_7MX01_2655997 Bus1=27136905 Bus2=27136894
New Line.7143K_7145K_2626923 Bus1=1106214 Bus2=1106216
New Line.7BD66_5DP98_2654334 Bus1=26999493 Bus2=26999502
New Line.14G318_14L467_2680581 Bus1=103125252 Bus2=27136522
New Line.132352_132353_2673897 Bus1=26999475 Bus2=26999472
New Line.D111K__2700919 Bus1=27136673 Bus2=25734605
New Line.U612BH__2692830 Bus1=26999153 Bus2=1140051
New Line.U876BH__2632721 Bus1=1140515 Bus2=1140516
New Line.U586BH_U595BH_2628345 Bus1=26999340 Bus2=26999336
New Line.U879BH_11PR92_2669627 Bus1=26303558 Bus2=27136831
New Line.107B88_12JB23_2672973 Bus1=103125269 Bus2=26485021
New Line.133Y84__2674173 Bus1=26567440 Bus2=26567441
New Line.18PH81_18PH80_104696343 Bus1=103537165 Bus2=103537166
New Line.A458K_A459K_2626968 Bus1=26281715 Bus2=26281714
New Line.D104K__2633491 Bus1=25734591 Bus2=1105845
New Line.13PX79__2676797 Bus1=26709819 Bus2=26709820
New Line.17KH68_17KH69_104218253 Bus1=103359068 Bus2=103359059
New Line.7WL54__2656217 Bus1=25360261 Bus2=25360342
New Line.U870BH__2632715 Bus1=1140505 Bus2=1140506
New Line.13F675__2701377 Bus1=103121242 Bus2=103121228
New Line.NV02BH__2634458 Bus1=25024999 Bus2=1139739
New Line.14Q053__103041283 Bus1=103016818 Bus2=103016822
New Line.17DH82_17DH83_104079496 Bus1=103321744 Bus2=103307204
New Line.18GC32_18GC33_105326037 Bus1=103626595 Bus2=103626605
New Line.A466K__2633453 Bus1=1105664 Bus2=1105665
New Line.14LH92__2701371 Bus1=27137125 Bus2=26907384
New Line.17KH66__104218264 Bus1=103359051 Bus2=103359052
New Line.17KH66__104218265 Bus1=103359052 Bus2=103359053
New Line.U491BH__2634395 Bus1=1140710 Bus2=1140711
New Line.U566BH_U567BH_2628359 Bus1=1140197 Bus2=1140167
New Line.132354_132355_2673901 Bus1=26999446 Bus2=26999458
New Line.14LH92__2701372 Bus1=26907384 Bus2=27137126
New Line.14Q053__103041285 Bus1=103025150 Bus2=103016818
New Line.7146K__2668245 Bus1=1106212 Bus2=26165248
New Line.G254K__2633501 Bus1=25734641 Bus2=1105250
New Line.13PX76__2693873 Bus1=26709810 Bus2=27000196
New Line.14Q053__103041284 Bus1=103016818 Bus2=103016828
New Line.17MN22__104282577 Bus1=103383281 Bus2=103383282
New Line.8DT92_8DW53_2657076 Bus1=26999514 Bus2=103079711
New Line.G2401_G2402_2628387 Bus1=26999408 Bus2=26999177
New Line.14L469_14L470_2680584 Bus1=27136584 Bus2=27136581
New Line.D102K_D104K_2627020 Bus1=27136769 Bus2=27136766
New Line.U534BH__2673914 Bus1=1140364 Bus2=26555795
New Line.11E479_11E480_2667682 Bus1=103125594 Bus2=27136870
New Line.8DT82_8DT97_2657065 Bus1=26999713 Bus2=27000214
New Line.7112K_C799K_2627007 Bus1=26281700 Bus2=26281699
New Line.17MN22__104282578 Bus1=103383282 Bus2=103383283
New Line.18GC36_18GC37_105326035 Bus1=103626597 Bus2=103626591
New Line.13PX76__2693874 Bus1=27000197 Bus2=26709810
New Line.5R683__2636805 Bus1=26281696 Bus2=26281697
New Line.7354K__2635247 Bus1=1104971 Bus2=1104972
New Line.8R721__2657826 Bus1=25490385 Bus2=25490426
New Line.A465K__2636800 Bus1=26281718 Bus2=25734585
New Line.D116K_D117K_2626986 Bus1=27136779 Bus2=27136776
New Line.18GE31__105436272 Bus1=103631265 Bus2=103631268
New Line.U479BH_U489BH_2667580 Bus1=103128942 Bus2=26119675
New Line.18GE31__105436270 Bus1=103631265 Bus2=103631271
New Line.6MG63_100458_2665163 Bus1=25173472 Bus2=26803517
New Line.8EK62__2693050 Bus1=25586104 Bus2=26999373
New Line.133Y84__2701192 Bus1=27136946 Bus2=26567440
New Line.18GE31__105436271 Bus1=103631269 Bus2=103631265
New Line.8EK62__2693051 Bus1=25586104 Bus2=26999374
New Line.8EK63__2693052 Bus1=25833129 Bus2=26999375
New Line.13PX86__2676783 Bus1=26709786 Bus2=26709787
New Line.17KH65__104218225 Bus1=103359056 Bus2=103359058
New Line.7X078_7X079_2656201 Bus1=27136944 Bus2=27136941
New Line.8EK63__2693053 Bus1=26999376 Bus2=25833129
New Line.132352__2673896 Bus1=26555737 Bus2=26555738
New Line.5N331__2634475 Bus1=1104653 Bus2=1104654
New Line.U572K_ABE44K_2628369 Bus1=1105109 Bus2=26999387
New Line.U600BH_2YV80_2628349 Bus1=26999144 Bus2=26999335
New Line.133Y84__2701191 Bus1=26567440 Bus2=27136945
New Line.7TX21_7X080_2656198 Bus1=27136939 Bus2=27136933
New Line.6TE35_6TE36_2655977 Bus1=27136896 Bus2=27136891
New Line.G252K__2633497 Bus1=25734639 Bus2=1105148
New Line.U348BH_G9Z22_2626901 Bus1=1140866 Bus2=1140863
New Line.14LJ00__2701349 Bus1=26896049 Bus2=27137103
New Line.6MG73__2667352 Bus1=6MG73_2667352 Bus2=T4795B23_10000000
New Line.14LJ00__2701348 Bus1=27137102 Bus2=26896049
New Line.9W757__2701504 Bus1=25858575 Bus2=27137258
New Line.NV08__2634460 Bus1=25024995 Bus2=1139682
New Line.13PX88__2676766 Bus1=26709740 Bus2=26709741
New Line.9W757__2701505 Bus1=27137259 Bus2=25858575
New Line.14FX05__2700739 Bus1=26859626 Bus2=27136493
New Line.12AK64__2671225 Bus1=26387814 Bus2=26387815
New Line.14LJ03__2701353 Bus1=26896052 Bus2=27137107
New Line.187W45__104783620 Bus1=103571153 Bus2=103571156
New Line.7233K__2634471 Bus1=1104671 Bus2=1104673
New Line.14LJ03__2701352 Bus1=27137106 Bus2=26896052
New Line.18PJ29_184Q58_106403424 Bus1=103672955 Bus2=103543473
New Line.8EK65__2693058 Bus1=25586117 Bus2=26999381
New Line.D884K_D885K_2628410 Bus1=1104550 Bus2=25783320
New Line.13PX97__2676775 Bus1=26709766 Bus2=26709767
New Line.17MN16__104282583 Bus1=103383285 Bus2=103383286
New Line.8EK65__2693059 Bus1=26999382 Bus2=25586117
New Line.9W756__2701506 Bus1=25858574 Bus2=27137260
New Line.14L343_14L344_2680569 Bus1=27136567 Bus2=27136564
New Line.17MN16__104282582 Bus1=103383286 Bus2=103383287
New Line.6TE33__2655982 Bus1=25359969 Bus2=25359990
New Line.6TE35__2655984 Bus1=25359972 Bus2=25360008
New Line.8EK63__2659232 Bus1=25833129 Bus2=25833130
New Line.9W756__2701507 Bus1=27137261 Bus2=25858574
New Line.B328K__2633437 Bus1=1106143 Bus2=1106144
New Line.13PX92__2676781 Bus1=26709781 Bus2=26709782
New Line.G261K__2693037 Bus1=1105100 Bus2=26999360
New Line.17BT58__104029638 Bus1=103559715 Bus2=103294835
New Line.17MN21_17MN22_104282571 Bus1=103383295 Bus2=103383281
New Line.6TE32__2655981 Bus1=25359968 Bus2=25359978
New Line.8DT83__2693389 Bus1=25734569 Bus2=26999712
New Line.13L572__2676139 Bus1=26679487 Bus2=26679513
New Line.17BT58__104029639 Bus1=103294957 Bus2=103294837
New Line.7NX02__2692942 Bus1=25734562 Bus2=26999265
New Line.8DT83__2693388 Bus1=26999711 Bus2=25734569
New Line.13L576__2676133 Bus1=26679492 Bus2=26679502
New Line.7NX02__2692943 Bus1=26999266 Bus2=25734562
New Line.13PX89__2693860 Bus1=27000183 Bus2=26709745
New Line.7367K_158L58_2628408 Bus1=103181251 Bus2=1104681
New Line.6MG63__2678615 Bus1=26803517 Bus2=26803518
New Line.8EK62__2659231 Bus1=25586104 Bus2=25586124
New Line.BUS_104029640 Bus1=103294836 Bus2=103294834
New Line.6TE37__2655986 Bus1=25359988 Bus2=25360031
New Line.PME14_NV06_2650270 Bus1=26999194 Bus2=26999191
New Line.13PX88__2693857 Bus1=27000180 Bus2=26709740
New Line.9AM89_9AM90_2659656 Bus1=26999864 Bus2=26999861
New Line.6TE34__2655983 Bus1=25359970 Bus2=25359999
New Line.6TE36__2655985 Bus1=25359973 Bus2=25360014
New Line.BUS_104508462 Bus1=103462490 Bus2=103462488
New Line.G261K__2693038 Bus1=26999361 Bus2=1105100
New Line.U561BH__2634416 Bus1=1140270 Bus2=1140271
New Line.126696_126697_2670648 Bus1=26999928 Bus2=26999931
New Line.13PX94__2693852 Bus1=26709797 Bus2=27000175
New Line.17BT58__104029636 Bus1=103294839 Bus2=103294850
New Line.D102K__2701015 Bus1=25734598 Bus2=27136769
New Line.13PX94__2693851 Bus1=27000174 Bus2=26709797
New Line.14L465__2680578 Bus1=26887559 Bus2=26887570
New Line.17BT58__104029637 Bus1=103294838 Bus2=103294673
New Line.8R721__2685192 Bus1=26991510 Bus2=25490385
New Line.D102K__2701014 Bus1=27136768 Bus2=25734598
New Line.6TE39__2655987 Bus1=25359971 Bus2=25360028
New Line.9W754__2701508 Bus1=103014538 Bus2=25858578
New Line.U553BH_U554BH_2628342 Bus1=1140220 Bus2=1140190
New Line.10EH22__2701092 Bus1=27136846 Bus2=25917435
New Line.13PX88__2693858 Bus1=26709740 Bus2=27000181
New Line.8EK67__2659236 Bus1=25833119 Bus2=25833120
New Line.BUS_104508464 Bus1=103462491 Bus2=103462489
New Line.G2635_G2636_2650273 Bus1=26999204 Bus2=26999197
New Line.11E483__2701113 Bus1=26128186 Bus2=27136867
New Line.8DT86__2692948 Bus1=25734566 Bus2=26999271
New Line.14Q054_14Q055_103041330 Bus1=103016838 Bus2=103016839
New Line.8DT86__2692949 Bus1=25734566 Bus2=26999272
New Line.12129__2693815 Bus1=27000138 Bus2=1105038
New Line.126697__2693607 Bus1=26356916 Bus2=26999930
New Line.18FA93__105436421 Bus1=103631345 Bus2=103631336
New Line.7NW93__2654657 Bus1=25734561 Bus2=25238962
New Line.D106K__2700910 Bus1=25734600 Bus2=27136664
New Line.G258K_G257K_2626995 Bus1=27136690 Bus2=27136693
New Line.PBB38__2634447 Bus1=1139895 Bus2=1139896
New Line.106804__2662461 Bus1=25836854 Bus2=25836913
New Line.11E483__2701114 Bus1=27136868 Bus2=26128186
New Line.126697__2693608 Bus1=26999931 Bus2=26356916
New Line.8DT84__2693063 Bus1=26999386 Bus2=25734568
New Line.9AM83_D883K_2659658 Bus1=25631623 Bus2=26999865
New Line.8DT84__2693062 Bus1=25734568 Bus2=26999385
New Line.8DT93_8DT94_2657071 Bus1=26999512 Bus2=26999508
New Line.U489BH__2634394 Bus1=26119675 Bus2=1140692
New Line.8EK64__2659233 Bus1=25833131 Bus2=25833132
New Line.8EK66__2659235 Bus1=25784511 Bus2=25833107
New Line.18KP61__105820220 Bus1=103645570 Bus2=103645572
New Line.8EK65__2659234 Bus1=25586117 Bus2=25784512
New Line.U761BH__2633424 Bus1=1140496 Bus2=1140497
New Line.14LJ02_14LJ03_2680794 Bus1=27137109 Bus2=27137106
New Line.183Y09_183Y10_104695364 Bus1=103536820 Bus2=103536822
New Line.U565BH__2667829 Bus1=1140198 Bus2=26139233
New Line.11E480__2701123 Bus1=27136877 Bus2=26128170
New Line.7NX11_7NX10_2664931 Bus1=26999400 Bus2=26999395
New Line.U543BH_U551BH_2628337 Bus1=1140222 Bus2=1140193
New Line.10CY32_10CY33_2663809 Bus1=25905255 Bus2=25905256
New Line.U609BH__2692827 Bus1=26999150 Bus2=1139872
New Line.18NP34__106231436 Bus1=103666848 Bus2=103666882
New Line.18NP34__106231437 Bus1=103666861 Bus2=103666848
New Line.D113K__2633461 Bus1=25734607 Bus2=1106083
New Line.G253K__2700930 Bus1=27136684 Bus2=25734640
New Line.102L15_102L16_2661142 Bus1=27136918 Bus2=27136921
New Line.17MN16__104282524 Bus1=103383286 Bus2=103383288
New Line.G253K__2700931 Bus1=25734640 Bus2=27136685
New Line.U789BH__2633428 Bus1=1140305 Bus2=1140306
New Line.106800__2662465 Bus1=25836861 Bus2=25836892
New Line.13PX93__2693849 Bus1=27000172 Bus2=26709791
New Line.7WL57_7WL54_2656207 Bus1=27136911 Bus2=27136906
New Line.8DT92__2657078 Bus1=25734539 Bus2=25443503
New Line.132416__2673923 Bus1=26555820 Bus2=26555821
New Line.6TE36_6TE40_2655978 Bus1=27136892 Bus2=27136898
New Line.9WF47_9WF48_2663243 Bus1=27136700 Bus2=27136762
New Line.13WA55_144381_2678077 Bus1=26776441 Bus2=27137093
New Line.8DT91__2657079 Bus1=25734540 Bus2=25443509
New Line.17KH65__104218260 Bus1=103359056 Bus2=103359057
New Line.18NP34__106231438 Bus1=103666848 Bus2=103666859
New Line.U609BH__2692828 Bus1=1139872 Bus2=26999151
New Line.U876BH_U877BH_2625901 Bus1=1140515 Bus2=1140867
New Line.U879BH_U880BH_2625897 Bus1=1141081 Bus2=1141080
New Line.U881BH__2632711 Bus1=1141078 Bus2=1141079
New Line.17KH65__104218261 Bus1=103359055 Bus2=103359056
New Line.12AK60__2701055 Bus1=27136809 Bus2=26387839
New Line.8DT89_8DT97_103222721 Bus1=103079643 Bus2=103079646
New Line.9W758__2662747 Bus1=25858576 Bus2=25858661
New Line.A457K__2633450 Bus1=26281716 Bus2=1105650
New Line.U567BH__2636920 Bus1=1140167 Bus2=1140168
New Line.10EF34_10D187_2663677 Bus1=25893620 Bus2=25905475
New Line.12AK60__2701054 Bus1=26387839 Bus2=27136808
New Line.14FX08__2700746 Bus1=103322576 Bus2=26859622
New Line.17Q659_17Q660_104378562 Bus1=103413071 Bus2=103413070
New Line.7365K_5DN79_2652210 Bus1=25098741 Bus2=1104964
New Line.D115K__2633459 Bus1=25734587 Bus2=1105913
New Line.U122BH_U414BH_103374413 Bus1=103117918 Bus2=103117921
New Line.14L345_14L346_2680571 Bus1=27136568 Bus2=27136570
New Line.A455K__2633480 Bus1=26281720 Bus2=1105707
New Line.14J292_ND80BH_2626904 Bus1=1140858 Bus2=1140827
New Line.7351K_7352K_2629421 Bus1=1104732 Bus2=1104708
New Line.9WA93__2701524 Bus1=27137278 Bus2=25873713
New Line.U787BH_U789BH_2626941 Bus1=1140453 Bus2=1140305
New Line.132363_132362_2673928 Bus1=26999444 Bus2=26999441
New Line.14L468__2680589 Bus1=26887563 Bus2=26887578
New Line.18GC40_18FA93_105326042 Bus1=103631340 Bus2=103626619
New Line.8DR55__2657051 Bus1=25426806 Bus2=25426816
New Line.9WA93__2701523 Bus1=25873713 Bus2=27137277
New Line.A473K__2633478 Bus1=1105587 Bus2=1105588
New Line.5R685_7110K_2627028 Bus1=103675378 Bus2=26281695
New Line.A450K_A451K_2626960 Bus1=1106193 Bus2=1106220
New Line.7112K_13HW95_2627006 Bus1=26281699 Bus2=26677225
New Line.D884K_13PX74_2676760 Bus1=26709737 Bus2=27000192
New Line.12AK65_12AK64_2671224 Bus1=27136806 Bus2=27136838
New Line.8DR36__2657904 Bus1=25497403 Bus2=25497404
New Line.CBN14_CBN16_2626962 Bus1=27136709 Bus2=27136706
New Line.18GC33__105325970 Bus1=103626606 Bus2=103626608
New Line.D860K__2693066 Bus1=1105214 Bus2=26999389
New Line.U409BH_U122BH_103374408 Bus1=103118125 Bus2=103117918
New Line.14L346__2700816 Bus1=27136570 Bus2=26887528
New Line.183Y08__104695269 Bus1=103536776 Bus2=103536845
New Line.D860K__2693067 Bus1=26999390 Bus2=1105214
New Line.ND80BH_13L569_2676123 Bus1=26801549 Bus2=27137074
New Line.17KH64__104218223 Bus1=103359454 Bus2=103359037
New Line.12116_12118_2627013 Bus1=26281708 Bus2=26281709
New Line.14G317_14L810_2680021 Bus1=103089685 Bus2=103048713
New Line.8CM13__2657900 Bus1=25426801 Bus2=25497401
New Line.S001K__2636926 Bus1=1104992 Bus2=1104994
New Line.14L342__2700818 Bus1=26887523 Bus2=27136572
New Line.S001K__2636927 Bus1=1104992 Bus2=1104993
New Line.BUS_104679566 Bus1=103529699 Bus2=T4795B23_10000048
New Line.126696__2670647 Bus1=26356911 Bus2=26356912
New Line.17MN20__104282532 Bus1=103383290 Bus2=103383292
New Line.BUS_104679565 Bus1=103529698 Bus2=T4795B23_10000047
New Line.D862K__2692910 Bus1=1105379 Bus2=26999233
New Line.U760BH_2X516_2626937 Bus1=1140489 Bus2=25111713
New Line.17DH83__104079498 Bus1=103307204 Bus2=103307205
New Line.183Y93__104696246 Bus1=103537127 Bus2=103537208
New Line.7WL58_7MX01_2656219 Bus1=27136912 Bus2=27136904
New Line.BUS_104679563 Bus1=103529696 Bus2=T4795B23_10000046
New Line.14G318_14L472_103098812 Bus1=27136585 Bus2=103125253
New Line.14L342__2700817 Bus1=27136571 Bus2=26887523
New Line.14FX05__2680012 Bus1=26859626 Bus2=26859634
New Line.183Y93__104696244 Bus1=103537127 Bus2=103537742
New Line.132365_132364_2673919 Bus1=26999449 Bus2=26999463
New Line.183Y93__104696245 Bus1=103543459 Bus2=103537127
New Line.9W753__2662742 Bus1=25858571 Bus2=25858579
New Line.105P72__2680188 Bus1=26835313 Bus2=25856674