New Line.105495__103374096 Bus1=103007630 Bus2=103135359 LineCode=NONE Length=0.001 units=m
New Line.13L570__2701321 Bus1=26679485 Bus2=27137075 LineCode=NONE Length=0.001 units=m
New Line.106804__2701104 Bus1=27136858 Bus2=25836854 LineCode=NONE Length=0.001 units=m
New Line.106804__2701105 Bus1=25836854 Bus2=27136859 LineCode=NONE Length=0.001 units=m
New Line.144378__2701336 Bus1=26776430 Bus2=27137090 LineCode=NONE Length=0.001 units=m
New Line.106804__2701106 Bus1=25836854 Bus2=27136860 LineCode=NONE Length=0.001 units=m
New Line.13L570__2701322 Bus1=27137076 Bus2=26679485 LineCode=NONE Length=0.001 units=m
New Line.18GC33__105326050 Bus1=103626605 Bus2=103626606 LineCode=NONE Length=0.001 units=m
New Line.106800__2701100 Bus1=25836861 Bus2=27136854 LineCode=NONE Length=0.001 units=m
New Line.186Q94__104672522 Bus1=103527277 Bus2=103527276 LineCode=NONE Length=0.001 units=m
New Line.186Q94__104672521 Bus1=103527276 Bus2=103527275 LineCode=NONE Length=0.001 units=m
New Line.17MN18__104282587 Bus1=103383300 Bus2=103383301 LineCode=NONE Length=0.001 units=m
New Line.17MN18__104282586 Bus1=103383301 Bus2=103383302 LineCode=NONE Length=0.001 units=m
New Line.CBR27__2700959 Bus1=1105418 Bus2=27136713 LineCode=NONE Length=0.001 units=m
New Line.CBR27__2700958 Bus1=27136712 Bus2=1105418 LineCode=NONE Length=0.001 units=m
New Line.183Y96__104696222 Bus1=103537190 Bus2=103537122 LineCode=NONE Length=0.001 units=m
New Line.14Q055__103041320 Bus1=103016834 Bus2=103016849 LineCode=NONE Length=0.001 units=m
New Line.14Q055__103041321 Bus1=103016839 Bus2=103016834 LineCode=NONE Length=0.001 units=m
New Line.G2403__2693084 Bus1=1140149 Bus2=26999407 LineCode=NONE Length=0.001 units=m
New Line.G2402__2693085 Bus1=25747796 Bus2=26999408 LineCode=NONE Length=0.001 units=m
New Line.8DR30__2693046 Bus1=25426802 Bus2=26999369 LineCode=NONE Length=0.001 units=m
New Line.G2402__2693086 Bus1=26999409 Bus2=25747796 LineCode=NONE Length=0.001 units=m
New Line.G2403__2693083 Bus1=26999406 Bus2=1140149 LineCode=NONE Length=0.001 units=m
New Line.8DR30__2693045 Bus1=26999368 Bus2=25426802 LineCode=NONE Length=0.001 units=m
New Line.8DR36__2693047 Bus1=25497403 Bus2=26999370 LineCode=NONE Length=0.001 units=m
New Line.7NX73__2692946 Bus1=25734565 Bus2=103079718 LineCode=NONE Length=0.001 units=m
New Line.7NX73__2692947 Bus1=26999270 Bus2=25734565 LineCode=NONE Length=0.001 units=m
New Line.9WF49__2701060 Bus1=25876081 Bus2=27136814 LineCode=NONE Length=0.001 units=m
New Line.102L21__2701174 Bus1=26755198 Bus2=27136928 LineCode=NONE Length=0.001 units=m
New Line.102L21__2701175 Bus1=27136929 Bus2=26755198 LineCode=NONE Length=0.001 units=m
New Line.17KH67__104218262 Bus1=103359063 Bus2=103359064 LineCode=NONE Length=0.001 units=m
New Line.17KH67__104218263 Bus1=103359062 Bus2=103359063 LineCode=NONE Length=0.001 units=m
New Line.102L19__2701170 Bus1=27136924 Bus2=26755197 LineCode=NONE Length=0.001 units=m
New Line.8DR36__2693048 Bus1=26999371 Bus2=25497403 LineCode=NONE Length=0.001 units=m
New Line.14G317__2679983 Bus1=27146923 Bus2=103016798 LineCode=NONE Length=0.001 units=m
New Line.14G317__2679982 Bus1=103036415 Bus2=27146922 LineCode=NONE Length=0.001 units=m
New Line.U602BH__2692833 Bus1=26999156 Bus2=1139987 LineCode=NONE Length=0.001 units=m
New Line.U600BH__2692822 Bus1=26999145 Bus2=1140076 LineCode=NONE Length=0.001 units=m
New Line.14L465__2700819 Bus1=103045212 Bus2=26887559 LineCode=NONE Length=0.001 units=m
New Line.U600BH__2692821 Bus1=1140076 Bus2=26999144 LineCode=NONE Length=0.001 units=m
New Line.9AM84__2693537 Bus1=25631609 Bus2=26999860 LineCode=NONE Length=0.001 units=m
New Line.102L18__2701168 Bus1=25750597 Bus2=27136922 LineCode=NONE Length=0.001 units=m
New Line.9AM84__2693536 Bus1=26999859 Bus2=25631609 LineCode=NONE Length=0.001 units=m
New Line.9AM89__2693539 Bus1=25631613 Bus2=26999862 LineCode=NONE Length=0.001 units=m
New Line.102L18__2701169 Bus1=27136923 Bus2=25750597 LineCode=NONE Length=0.001 units=m
New Line.9AM85__2693534 Bus1=26999857 Bus2=25631608 LineCode=NONE Length=0.001 units=m
New Line.9AM89__2693538 Bus1=26999861 Bus2=25631613 LineCode=NONE Length=0.001 units=m
New Line.U602BH__2692835 Bus1=1139987 Bus2=26999158 LineCode=NONE Length=0.001 units=m
New Line.U602BH__2692834 Bus1=1139987 Bus2=26999157 LineCode=NONE Length=0.001 units=m
New Line.9WF47__2700944 Bus1=27136698 Bus2=25876080 LineCode=NONE Length=0.001 units=m
New Line.9WF47__2700946 Bus1=25876080 Bus2=27136700 LineCode=NONE Length=0.001 units=m
New Line.14L810__2700860 Bus1=103048713 Bus2=103048712 LineCode=NONE Length=0.001 units=m
New Line.C1F95__2700899 Bus1=27136653 Bus2=25734580 LineCode=NONE Length=0.001 units=m
New Line.14NJ19__103098846 Bus1=103041526 Bus2=103041531 LineCode=NONE Length=0.001 units=m
New Line.14Q054__103041306 Bus1=103016829 Bus2=103016827 LineCode=NONE Length=0.001 units=m
New Line.14MD35__103098783 Bus1=103048715 Bus2=T4795B23_10000005 LineCode=NONE Length=0.001 units=m
New Line.14Q054__103041305 Bus1=103016827 Bus2=103016838 LineCode=NONE Length=0.001 units=m
New Line.14L466__2700821 Bus1=103125256 Bus2=26887560 LineCode=NONE Length=0.001 units=m
New Line.14L466__2700822 Bus1=26887560 Bus2=27136576 LineCode=NONE Length=0.001 units=m
New Line.186Q95__104672520 Bus1=103527273 Bus2=103527272 LineCode=NONE Length=0.001 units=m
New Line.17MN19__104282580 Bus1=103383279 Bus2=103383280 LineCode=NONE Length=0.001 units=m
New Line.7TX20__2701182 Bus1=27136936 Bus2=25360255 LineCode=NONE Length=0.001 units=m
New Line.11E480__103404104 Bus1=26128170 Bus2=103125594 LineCode=NONE Length=0.001 units=m
New Line.7TX20__2701181 Bus1=25360255 Bus2=27136935 LineCode=NONE Length=0.001 units=m
New Line.9WA88__2700964 Bus1=25873704 Bus2=27136718 LineCode=NONE Length=0.001 units=m
New Line.G250K__2692955 Bus1=26999278 Bus2=25734637 LineCode=NONE Length=0.001 units=m
New Line.G250K__2692956 Bus1=25734637 Bus2=26999279 LineCode=NONE Length=0.001 units=m
New Line.U588BH__2693010 Bus1=1140108 Bus2=26999333 LineCode=NONE Length=0.001 units=m
New Line.9WA88__2700963 Bus1=27136717 Bus2=25873704 LineCode=NONE Length=0.001 units=m
New Line.183Y12__104695296 Bus1=103536834 Bus2=103536786 LineCode=NONE Length=0.001 units=m
New Line.183Y12__104695295 Bus1=103536786 Bus2=103536832 LineCode=NONE Length=0.001 units=m
New Line.PME14__2692868 Bus1=26999191 Bus2=25024992 LineCode=NONE Length=0.001 units=m
New Line.183Y95__104696227 Bus1=103537123 Bus2=103537191 LineCode=NONE Length=0.001 units=m
New Line.PME14__2692869 Bus1=25024992 Bus2=26999192 LineCode=NONE Length=0.001 units=m
New Line.5LT91__2692884 Bus1=26999207 Bus2=25024996 LineCode=NONE Length=0.001 units=m
New Line.5LT91__2692885 Bus1=25024996 Bus2=26999208 LineCode=NONE Length=0.001 units=m
New Line.13F675__2701378 Bus1=103121261 Bus2=103121256 LineCode=NONE Length=0.001 units=m
New Line.15TN74__103913538 Bus1=103265086 Bus2=103265159 LineCode=NONE Length=0.001 units=m
New Line.183Y95__104696228 Bus1=103537194 Bus2=103537123 LineCode=NONE Length=0.001 units=m
New Line.15TN74__103913539 Bus1=103265162 Bus2=103265086 LineCode=NONE Length=0.001 units=m
New Line.A543BH__2692847 Bus1=26999170 Bus2=1139897 LineCode=NONE Length=0.001 units=m
New Line.84Q24__2693040 Bus1=26999363 Bus2=25734529 LineCode=NONE Length=0.001 units=m
New Line.A543BH__2692846 Bus1=1139897 Bus2=26999169 LineCode=NONE Length=0.001 units=m
New Line.D111K__2700919 Bus1=27136673 Bus2=25734605 LineCode=NONE Length=0.001 units=m
New Line.U612BH__2692830 Bus1=26999153 Bus2=1140051 LineCode=NONE Length=0.001 units=m
New Line.13F675__2701377 Bus1=103121242 Bus2=103121228 LineCode=NONE Length=0.001 units=m
New Line.14LH92__2701371 Bus1=27137125 Bus2=26907384 LineCode=NONE Length=0.001 units=m
New Line.17KH66__104218264 Bus1=103359051 Bus2=103359052 LineCode=NONE Length=0.001 units=m
New Line.17KH66__104218265 Bus1=103359052 Bus2=103359053 LineCode=NONE Length=0.001 units=m
New Line.14LH92__2701372 Bus1=26907384 Bus2=27137126 LineCode=NONE Length=0.001 units=m
New Line.14Q053__103041285 Bus1=103025150 Bus2=103016818 LineCode=NONE Length=0.001 units=m
New Line.13PX76__2693873 Bus1=26709810 Bus2=27000196 LineCode=NONE Length=0.001 units=m
New Line.14Q053__103041284 Bus1=103016818 Bus2=103016828 LineCode=NONE Length=0.001 units=m
New Line.17MN22__104282577 Bus1=103383281 Bus2=103383282 LineCode=NONE Length=0.001 units=m
New Line.17MN22__104282578 Bus1=103383282 Bus2=103383283 LineCode=NONE Length=0.001 units=m
New Line.13PX76__2693874 Bus1=27000197 Bus2=26709810 LineCode=NONE Length=0.001 units=m
New Line.18GE31__105436272 Bus1=103631265 Bus2=103631268 LineCode=NONE Length=0.001 units=m
New Line.8EK62__2693050 Bus1=25586104 Bus2=26999373 LineCode=NONE Length=0.001 units=m
New Line.133Y84__2701192 Bus1=27136946 Bus2=26567440 LineCode=NONE Length=0.001 units=m
New Line.18GE31__105436271 Bus1=103631269 Bus2=103631265 LineCode=NONE Length=0.001 units=m
New Line.8EK62__2693051 Bus1=25586104 Bus2=26999374 LineCode=NONE Length=0.001 units=m
New Line.8EK63__2693052 Bus1=25833129 Bus2=26999375 LineCode=NONE Length=0.001 units=m
New Line.8EK63__2693053 Bus1=26999376 Bus2=25833129 LineCode=NONE Length=0.001 units=m
New Line.133Y84__2701191 Bus1=26567440 Bus2=27136945 LineCode=NONE Length=0.001 units=m
New Line.14LJ00__2701349 Bus1=26896049 Bus2=27137103 LineCode=NONE Length=0.001 units=m
New Line.14LJ00__2701348 Bus1=27137102 Bus2=26896049 LineCode=NONE Length=0.001 units=m
New Line.9W757__2701504 Bus1=25858575 Bus2=27137258 LineCode=NONE Length=0.001 units=m
New Line.9W757__2701505 Bus1=27137259 Bus2=25858575 LineCode=NONE Length=0.001 units=m
New Line.14FX05__2700739 Bus1=26859626 Bus2=27136493 LineCode=NONE Length=0.001 units=m
New Line.14LJ03__2701353 Bus1=26896052 Bus2=27137107 LineCode=NONE Length=0.001 units=m
New Line.187W45__104783620 Bus1=103571153 Bus2=103571156 LineCode=NONE Length=0.001 units=m
New Line.14LJ03__2701352 Bus1=27137106 Bus2=26896052 LineCode=NONE Length=0.001 units=m
New Line.8EK65__2693058 Bus1=25586117 Bus2=26999381 LineCode=NONE Length=0.001 units=m
New Line.17MN16__104282583 Bus1=103383285 Bus2=103383286 LineCode=NONE Length=0.001 units=m
New Line.8EK65__2693059 Bus1=26999382 Bus2=25586117 LineCode=NONE Length=0.001 units=m
New Line.17MN16__104282582 Bus1=103383286 Bus2=103383287 LineCode=NONE Length=0.001 units=m
New Line.9W756__2701507 Bus1=27137261 Bus2=25858574 LineCode=NONE Length=0.001 units=m
New Line.8DT83__2693389 Bus1=25734569 Bus2=26999712 LineCode=NONE Length=0.001 units=m
New Line.17BT58__104029639 Bus1=103294957 Bus2=103294837 LineCode=NONE Length=0.001 units=m
New Line.7NX02__2692942 Bus1=25734562 Bus2=26999265 LineCode=NONE Length=0.001 units=m
New Line.8DT83__2693388 Bus1=26999711 Bus2=25734569 LineCode=NONE Length=0.001 units=m
New Line.7NX02__2692943 Bus1=26999266 Bus2=25734562 LineCode=NONE Length=0.001 units=m
New Line.13PX89__2693860 Bus1=27000183 Bus2=26709745 LineCode=NONE Length=0.001 units=m
New Line.13PX88__2693857 Bus1=27000180 Bus2=26709740 LineCode=NONE Length=0.001 units=m
New Line.G261K__2693038 Bus1=26999361 Bus2=1105100 LineCode=NONE Length=0.001 units=m
New Line.13PX94__2693852 Bus1=26709797 Bus2=27000175 LineCode=NONE Length=0.001 units=m
New Line.D102K__2701015 Bus1=25734598 Bus2=27136769 LineCode=NONE Length=0.001 units=m
New Line.13PX94__2693851 Bus1=27000174 Bus2=26709797 LineCode=NONE Length=0.001 units=m
New Line.8R721__2685192 Bus1=26991510 Bus2=25490385 LineCode=NONE Length=0.001 units=m
New Line.D102K__2701014 Bus1=27136768 Bus2=25734598 LineCode=NONE Length=0.001 units=m
New Line.9W754__2701508 Bus1=103014538 Bus2=25858578 LineCode=NONE Length=0.001 units=m
New Line.10EH22__2701092 Bus1=27136846 Bus2=25917435 LineCode=NONE Length=0.001 units=m
New Line.13PX88__2693858 Bus1=26709740 Bus2=27000181 LineCode=NONE Length=0.001 units=m
New Line.11E483__2701113 Bus1=26128186 Bus2=27136867 LineCode=NONE Length=0.001 units=m
New Line.8DT86__2692948 Bus1=25734566 Bus2=26999271 LineCode=NONE Length=0.001 units=m
New Line.8DT86__2692949 Bus1=25734566 Bus2=26999272 LineCode=NONE Length=0.001 units=m
New Line.12129__2693815 Bus1=27000138 Bus2=1105038 LineCode=NONE Length=0.001 units=m
New Line.126697__2693607 Bus1=26356916 Bus2=26999930 LineCode=NONE Length=0.001 units=m
New Line.18FA93__105436421 Bus1=103631345 Bus2=103631336 LineCode=NONE Length=0.001 units=m
New Line.D106K__2700910 Bus1=25734600 Bus2=27136664 LineCode=NONE Length=0.001 units=m
New Line.11E483__2701114 Bus1=27136868 Bus2=26128186 LineCode=NONE Length=0.001 units=m
New Line.126697__2693608 Bus1=26999931 Bus2=26356916 LineCode=NONE Length=0.001 units=m
New Line.8DT84__2693063 Bus1=26999386 Bus2=25734568 LineCode=NONE Length=0.001 units=m
New Line.8DT84__2693062 Bus1=25734568 Bus2=26999385 LineCode=NONE Length=0.001 units=m
New Line.11E480__2701123 Bus1=27136877 Bus2=26128170 LineCode=NONE Length=0.001 units=m
New Line.U609BH__2692827 Bus1=26999150 Bus2=1139872 LineCode=NONE Length=0.001 units=m
New Line.18NP34__106231437 Bus1=103666861 Bus2=103666848 LineCode=NONE Length=0.001 units=m
New Line.G253K__2700930 Bus1=27136684 Bus2=25734640 LineCode=NONE Length=0.001 units=m
New Line.G253K__2700931 Bus1=25734640 Bus2=27136685 LineCode=NONE Length=0.001 units=m
New Line.13PX93__2693849 Bus1=27000172 Bus2=26709791 LineCode=NONE Length=0.001 units=m
New Line.17KH65__104218260 Bus1=103359056 Bus2=103359057 LineCode=NONE Length=0.001 units=m
New Line.U609BH__2692828 Bus1=1139872 Bus2=26999151 LineCode=NONE Length=0.001 units=m
New Line.17KH65__104218261 Bus1=103359055 Bus2=103359056 LineCode=NONE Length=0.001 units=m
New Line.12AK60__2701055 Bus1=27136809 Bus2=26387839 LineCode=NONE Length=0.001 units=m
New Line.12AK60__2701054 Bus1=26387839 Bus2=27136808 LineCode=NONE Length=0.001 units=m
New Line.14FX08__2700746 Bus1=103322576 Bus2=26859622 LineCode=NONE Length=0.001 units=m
New Line.9WA93__2701524 Bus1=27137278 Bus2=25873713 LineCode=NONE Length=0.001 units=m
New Line.9WA93__2701523 Bus1=25873713 Bus2=27137277 LineCode=NONE Length=0.001 units=m
New Line.D860K__2693066 Bus1=1105214 Bus2=26999389 LineCode=NONE Length=0.001 units=m
New Line.14L346__2700816 Bus1=27136570 Bus2=26887528 LineCode=NONE Length=0.001 units=m
New Line.D860K__2693067 Bus1=26999390 Bus2=1105214 LineCode=NONE Length=0.001 units=m
New Line.14L342__2700818 Bus1=26887523 Bus2=27136572 LineCode=NONE Length=0.001 units=m
New Line.D862K__2692910 Bus1=1105379 Bus2=26999233 LineCode=NONE Length=0.001 units=m
New Line.17DH83__104079498 Bus1=103307204 Bus2=103307205 LineCode=NONE Length=0.001 units=m
New Line.183Y93__104696246 Bus1=103537127 Bus2=103537208 LineCode=NONE Length=0.001 units=m
New Line.14L342__2700817 Bus1=27136571 Bus2=26887523 LineCode=NONE Length=0.001 units=m
New Line.183Y93__104696245 Bus1=103543459 Bus2=103537127 LineCode=NONE Length=0.001 units=m
New Line.105P72__2680188 Bus1=26835313 Bus2=25856674 LineCode=NONE Length=0.001 units=m
New Line.G251K__2692957 Bus1=25734638 Bus2=26999280 LineCode=NONE Length=0.001 units=m
New Line.8DW53__103222931 Bus1=103079711 Bus2=103079706 LineCode=NONE Length=0.001 units=m
New Line.G251K__2692958 Bus1=26999281 Bus2=25734638 LineCode=NONE Length=0.001 units=m
New Line.132351__2693142 Bus1=26555727 Bus2=26999465 LineCode=NONE Length=0.001 units=m
New Line.7NW66__2692937 Bus1=26999260 Bus2=25734559 LineCode=NONE Length=0.001 units=m
New Line.7NW66__2692936 Bus1=25734559 Bus2=26999259 LineCode=NONE Length=0.001 units=m
New Line.132351__2693141 Bus1=26999464 Bus2=26555727 LineCode=NONE Length=0.001 units=m
New Line.13PX82__2693791 Bus1=26709841 Bus2=27000114 LineCode=NONE Length=0.001 units=m
New Line.132360__2693158 Bus1=26999481 Bus2=26555789 LineCode=NONE Length=0.001 units=m
New Line.13PX82__2693790 Bus1=27000113 Bus2=26709841 LineCode=NONE Length=0.001 units=m
New Line.D114K__2701029 Bus1=25734586 Bus2=27136783 LineCode=NONE Length=0.001 units=m
New Line.132360__2693159 Bus1=26555789 Bus2=26999482 LineCode=NONE Length=0.001 units=m
New Line.D114K__2701028 Bus1=27136782 Bus2=25734586 LineCode=NONE Length=0.001 units=m
New Line.14L472__103913766 Bus1=103282197 Bus2=26887569 LineCode=NONE Length=0.001 units=m
New Line.107H65__2693080 Bus1=25894028 Bus2=26999403 LineCode=NONE Length=0.001 units=m
New Line.13L576__2701331 Bus1=27137085 Bus2=26679492 LineCode=NONE Length=0.001 units=m
New Line.13L576__2701332 Bus1=26679492 Bus2=27137086 LineCode=NONE Length=0.001 units=m
New Line.7X078__2701190 Bus1=25360254 Bus2=27136944 LineCode=NONE Length=0.001 units=m
New Line.G9Z21__103450799 Bus1=25859631 Bus2=103136725 LineCode=NONE Length=0.001 units=m
New Line.13L571__2701324 Bus1=27137078 Bus2=26679486 LineCode=NONE Length=0.001 units=m
New Line.106805__2701101 Bus1=27136855 Bus2=25836859 LineCode=NONE Length=0.001 units=m
New Line.106805__2701102 Bus1=25836859 Bus2=27136856 LineCode=NONE Length=0.001 units=m
New Line.144380__2701343 Bus1=27137097 Bus2=26776418 LineCode=NONE Length=0.001 units=m
New Line.13L571__2701323 Bus1=26679486 Bus2=27137077 LineCode=NONE Length=0.001 units=m
New Line.144380__2701344 Bus1=26776418 Bus2=27137098 LineCode=NONE Length=0.001 units=m
New Line.144381__2701339 Bus1=27137093 Bus2=26776411 LineCode=NONE Length=0.001 units=m
New Line.116C33__2700966 Bus1=27136720 Bus2=25873717 LineCode=NONE Length=0.001 units=m
New Line.116C33__2700967 Bus1=25873717 Bus2=27136721 LineCode=NONE Length=0.001 units=m
New Line.5R684__2701009 Bus1=27136763 Bus2=26281698 LineCode=NONE Length=0.001 units=m
New Line.106801__2701103 Bus1=27136857 Bus2=25836871 LineCode=NONE Length=0.001 units=m
New Line.12133__2700960 Bus1=27136714 Bus2=1105420 LineCode=NONE Length=0.001 units=m
New Line.17MN20__104282573 Bus1=103383290 Bus2=103383291 LineCode=NONE Length=0.001 units=m
New Line.7WL55__2701149 Bus1=25360338 Bus2=27136903 LineCode=NONE Length=0.001 units=m
New Line.NV06__2692870 Bus1=26999193 Bus2=25024993 LineCode=NONE Length=0.001 units=m
New Line.NV06__2692871 Bus1=25024993 Bus2=26999194 LineCode=NONE Length=0.001 units=m
New Line.13L569__2701320 Bus1=27137074 Bus2=26679484 LineCode=NONE Length=0.001 units=m
New Line.17MN20__104282574 Bus1=103383289 Bus2=103383290 LineCode=NONE Length=0.001 units=m
New Line.183Y07__104695264 Bus1=103536804 Bus2=103536773 LineCode=NONE Length=0.001 units=m
New Line.183Y07__104695265 Bus1=103536773 Bus2=103536805 LineCode=NONE Length=0.001 units=m
New Line.18PH82__104696193 Bus1=103672968 Bus2=103537114 LineCode=NONE Length=0.001 units=m
New Line.102L15__2701164 Bus1=25750593 Bus2=27136918 LineCode=NONE Length=0.001 units=m
New Line.12132__2700884 Bus1=1105334 Bus2=27136638 LineCode=NONE Length=0.001 units=m
New Line.102L15__2701165 Bus1=27136919 Bus2=25750593 LineCode=NONE Length=0.001 units=m
New Line.8DT90__2693024 Bus1=25734535 Bus2=26999347 LineCode=NONE Length=0.001 units=m
New Line.A538BH__2692842 Bus1=1139960 Bus2=26999165 LineCode=NONE Length=0.001 units=m
New Line.A538BH__2692843 Bus1=26999166 Bus2=1139960 LineCode=NONE Length=0.001 units=m
New Line.12132__2700883 Bus1=27136637 Bus2=1105334 LineCode=NONE Length=0.001 units=m
New Line.9AM82__2693549 Bus1=25631621 Bus2=26999872 LineCode=NONE Length=0.001 units=m
New Line.18PH82__104696194 Bus1=103537114 Bus2=103537160 LineCode=NONE Length=0.001 units=m
New Line.9AM82__2693548 Bus1=26999871 Bus2=25631621 LineCode=NONE Length=0.001 units=m
New Line.18GC38__105326046 Bus1=103626603 Bus2=103626602 LineCode=NONE Length=0.001 units=m
New Line.8DT90__2693023 Bus1=26999346 Bus2=25734535 LineCode=NONE Length=0.001 units=m
New Line.18GC38__105326045 Bus1=103626602 Bus2=103626601 LineCode=NONE Length=0.001 units=m
New Line.9AM83__2693543 Bus1=25631615 Bus2=26999866 LineCode=NONE Length=0.001 units=m
New Line.A536BH__2692838 Bus1=26999161 Bus2=1139948 LineCode=NONE Length=0.001 units=m
New Line.9AM83__2693542 Bus1=26999865 Bus2=25631615 LineCode=NONE Length=0.001 units=m
New Line.A536BH__2692839 Bus1=1139948 Bus2=26999162 LineCode=NONE Length=0.001 units=m
New Line.D105K__2700907 Bus1=27136661 Bus2=25734599 LineCode=NONE Length=0.001 units=m
New Line.G2401__2692855 Bus1=26999178 Bus2=1140163 LineCode=NONE Length=0.001 units=m
New Line.10DQ79__2676996 Bus1=26331048 Bus2=26331050 LineCode=NONE Length=0.001 units=m
New Line.8DT93__2693187 Bus1=25734536 Bus2=26999510 LineCode=NONE Length=0.001 units=m
New Line.8DT94__2693185 Bus1=26999508 Bus2=25734537 LineCode=NONE Length=0.001 units=m
New Line.9AM81__2693547 Bus1=25631620 Bus2=26999870 LineCode=NONE Length=0.001 units=m
New Line.G2400__2692852 Bus1=26999175 Bus2=1140165 LineCode=NONE Length=0.001 units=m
New Line.7NX16__2692944 Bus1=26999267 Bus2=25734564 LineCode=NONE Length=0.001 units=m
New Line.9AM81__2693546 Bus1=26999869 Bus2=25631620 LineCode=NONE Length=0.001 units=m
New Line.G2400__2692853 Bus1=1140165 Bus2=26999176 LineCode=NONE Length=0.001 units=m
New Line.7NX16__2692945 Bus1=25734564 Bus2=26999268 LineCode=NONE Length=0.001 units=m
New Line.9AM80__2693544 Bus1=26999867 Bus2=25631619 LineCode=NONE Length=0.001 units=m
New Line.8DT94__2693186 Bus1=25734537 Bus2=26999509 LineCode=NONE Length=0.001 units=m
New Line.8DT95__2693184 Bus1=25734538 Bus2=26999507 LineCode=NONE Length=0.001 units=m
New Line.106803__2701093 Bus1=27136847 Bus2=25836872 LineCode=NONE Length=0.001 units=m
New Line.ABE44K__2693065 Bus1=1105216 Bus2=26999388 LineCode=NONE Length=0.001 units=m
New Line.G252K__2700925 Bus1=25734639 Bus2=27136679 LineCode=NONE Length=0.001 units=m
New Line.U606BH__2692823 Bus1=1139989 Bus2=26999146 LineCode=NONE Length=0.001 units=m
New Line.8DT93__2693189 Bus1=25734536 Bus2=26999512 LineCode=NONE Length=0.001 units=m
New Line.8DT95__2693183 Bus1=26999506 Bus2=25734538 LineCode=NONE Length=0.001 units=m
New Line.ABE44K__2693064 Bus1=26999387 Bus2=1105216 LineCode=NONE Length=0.001 units=m
New Line.G252K__2700926 Bus1=27136680 Bus2=25734639 LineCode=NONE Length=0.001 units=m
New Line.8DT93__2693188 Bus1=26999511 Bus2=25734536 LineCode=NONE Length=0.001 units=m
New Line.C0H28__2692908 Bus1=1105435 Bus2=26999231 LineCode=NONE Length=0.001 units=m
New Line.U604BH__2692837 Bus1=26999160 Bus2=1139985 LineCode=NONE Length=0.001 units=m
New Line.8DT96__2693182 Bus1=26999505 Bus2=25859415 LineCode=NONE Length=0.001 units=m
New Line.U604BH__2692836 Bus1=1139985 Bus2=26999159 LineCode=NONE Length=0.001 units=m
New Line.106802__2701088 Bus1=25836860 Bus2=27136842 LineCode=NONE Length=0.001 units=m
New Line.U606BH__2692824 Bus1=26999147 Bus2=1139989 LineCode=NONE Length=0.001 units=m
New Line.106802__2701089 Bus1=27136843 Bus2=25836860 LineCode=NONE Length=0.001 units=m
New Line.9WF46__2701038 Bus1=27136792 Bus2=25876077 LineCode=NONE Length=0.001 units=m
New Line.9WF46__2701039 Bus1=25876077 Bus2=27136793 LineCode=NONE Length=0.001 units=m
New Line.14L471__2700848 Bus1=26887566 Bus2=27136602 LineCode=NONE Length=0.001 units=m
New Line.15TN73__103913534 Bus1=103265085 Bus2=103265155 LineCode=NONE Length=0.001 units=m
New Line.14L467__2700824 Bus1=26887562 Bus2=103125252 LineCode=NONE Length=0.001 units=m
New Line.15TN73__103913535 Bus1=103265158 Bus2=103265085 LineCode=NONE Length=0.001 units=m
New Line.C0H28__2692907 Bus1=26999230 Bus2=1105435 LineCode=NONE Length=0.001 units=m
New Line.C1F95__2700900 Bus1=25734580 Bus2=27136654 LineCode=NONE Length=0.001 units=m
New Line.G258K__2700938 Bus1=1105332 Bus2=27136692 LineCode=NONE Length=0.001 units=m
New Line.G258K__2700939 Bus1=27136693 Bus2=1105332 LineCode=NONE Length=0.001 units=m
!New Line.18LL87__105931319 Bus1=103649895 Bus2=103649896 LineCode=NONE Length=0.001 units=m
New Line.14L467__2700823 Bus1=27136577 Bus2=26887562 LineCode=NONE Length=0.001 units=m
New Line.D864K__2700881 Bus1=27136635 Bus2=1105452 LineCode=NONE Length=0.001 units=m
New Line.14L470__2700830 Bus1=26887565 Bus2=27136584 LineCode=NONE Length=0.001 units=m
New Line.D864K__2700882 Bus1=1105452 Bus2=27136636 LineCode=NONE Length=0.001 units=m
New Line.14L463__2700861 Bus1=103400446 Bus2=103400443 LineCode=NONE Length=0.001 units=m
New Line.132414__2693116 Bus1=26999439 Bus2=26555830 LineCode=NONE Length=0.001 units=m
New Line.132414__2693117 Bus1=26555830 Bus2=26999440 LineCode=NONE Length=0.001 units=m
New Line.132416__2693138 Bus1=26999461 Bus2=26555820 LineCode=NONE Length=0.001 units=m
New Line.7NW93__2692941 Bus1=26999264 Bus2=25734561 LineCode=NONE Length=0.001 units=m
New Line.7NW93__2692940 Bus1=25734561 Bus2=26999263 LineCode=NONE Length=0.001 units=m
New Line.7TX21__2701177 Bus1=25360251 Bus2=27136931 LineCode=NONE Length=0.001 units=m
New Line.D115K__2701027 Bus1=25734587 Bus2=27136781 LineCode=NONE Length=0.001 units=m
New Line.D115K__2701026 Bus1=27136780 Bus2=25734587 LineCode=NONE Length=0.001 units=m
New Line.7TX21__2701179 Bus1=27136933 Bus2=25360251 LineCode=NONE Length=0.001 units=m
New Line.U588BH__2693009 Bus1=26999332 Bus2=1140108 LineCode=NONE Length=0.001 units=m
New Line.84Q25__2693034 Bus1=25734525 Bus2=26999357 LineCode=NONE Length=0.001 units=m
New Line.84Q26__2693031 Bus1=25734528 Bus2=26999354 LineCode=NONE Length=0.001 units=m
New Line.84Q25__2693033 Bus1=25734525 Bus2=26999356 LineCode=NONE Length=0.001 units=m
New Line.84Q26__2693030 Bus1=25734528 Bus2=26999353 LineCode=NONE Length=0.001 units=m
New Line.84Q25__2693032 Bus1=26999355 Bus2=25734525 LineCode=NONE Length=0.001 units=m
New Line.D111K__2700920 Bus1=25734605 Bus2=27136674 LineCode=NONE Length=0.001 units=m
New Line.A549BH__2692841 Bus1=1140071 Bus2=26999164 LineCode=NONE Length=0.001 units=m
New Line.A541BH__2692845 Bus1=26999168 Bus2=1139951 LineCode=NONE Length=0.001 units=m
New Line.A549BH__2692840 Bus1=26999163 Bus2=1140071 LineCode=NONE Length=0.001 units=m
New Line.A541BH__2692844 Bus1=1139951 Bus2=26999167 LineCode=NONE Length=0.001 units=m
New Line.184Q58__104712820 Bus1=103543473 Bus2=103543472 LineCode=NONE Length=0.001 units=m
New Line.84Q24__2693039 Bus1=25734529 Bus2=26999362 LineCode=NONE Length=0.001 units=m
New Line.8DW53__103222932 Bus1=103079707 Bus2=103079713 LineCode=NONE Length=0.001 units=m
New Line.14LH95__2701357 Bus1=27137111 Bus2=26896054 LineCode=NONE Length=0.001 units=m
New Line.12128__2700912 Bus1=25734601 Bus2=27136666 LineCode=NONE Length=0.001 units=m
New Line.2YC86__2700879 Bus1=27136633 Bus2=1105450 LineCode=NONE Length=0.001 units=m
New Line.12128__2700911 Bus1=27136665 Bus2=25734601 LineCode=NONE Length=0.001 units=m
New Line.14LH93__2701370 Bus1=26907383 Bus2=27137124 LineCode=NONE Length=0.001 units=m
New Line.18GC35__105326043 Bus1=103626609 Bus2=103626610 LineCode=NONE Length=0.001 units=m
New Line.13PX78__2693880 Bus1=27000203 Bus2=26709824 LineCode=NONE Length=0.001 units=m
New Line.15QR59__103849343 Bus1=103249223 Bus2=103249189 LineCode=NONE Length=0.001 units=m
New Line.13PX77__2693876 Bus1=27000199 Bus2=26709815 LineCode=NONE Length=0.001 units=m
New Line.13PX77__2693875 Bus1=26709815 Bus2=27000198 LineCode=NONE Length=0.001 units=m
New Line.6TE37__2701140 Bus1=27136894 Bus2=25359988 LineCode=NONE Length=0.001 units=m
New Line.CBN13__2700957 Bus1=1105733 Bus2=27136711 LineCode=NONE Length=0.001 units=m
New Line.14L810__103098773 Bus1=103048711 Bus2=T4795B23_10000004 LineCode=NONE Length=0.001 units=m
New Line.8EK62__2693049 Bus1=26999372 Bus2=25586104 LineCode=NONE Length=0.001 units=m
New Line.CBN13__2700956 Bus1=27136710 Bus2=1105733 LineCode=NONE Length=0.001 units=m
New Line.15QR59__103849345 Bus1=103249189 Bus2=103249218 LineCode=NONE Length=0.001 units=m
New Line.6TE35__2701141 Bus1=27136895 Bus2=25359972 LineCode=NONE Length=0.001 units=m
New Line.CBN16__2700952 Bus1=27136706 Bus2=1105719 LineCode=NONE Length=0.001 units=m
New Line.6TE35__2701142 Bus1=25359972 Bus2=27136896 LineCode=NONE Length=0.001 units=m
New Line.8DR38__104508465 Bus1=103462488 Bus2=103462493 LineCode=NONE Length=0.001 units=m
New Line.12127__2700914 Bus1=25734602 Bus2=27136668 LineCode=NONE Length=0.001 units=m
New Line.12126__2700916 Bus1=25734603 Bus2=27136670 LineCode=NONE Length=0.001 units=m
New Line.106797__2701119 Bus1=27136873 Bus2=25836866 LineCode=NONE Length=0.001 units=m
New Line.12127__2700913 Bus1=27136667 Bus2=25734602 LineCode=NONE Length=0.001 units=m
New Line.158E26__103192138 Bus1=103072060 Bus2=103072055 LineCode=NONE Length=0.001 units=m
New Line.CBN14__2700955 Bus1=1105735 Bus2=27136709 LineCode=NONE Length=0.001 units=m
New Line.12126__2700915 Bus1=27136669 Bus2=25734603 LineCode=NONE Length=0.001 units=m
New Line.8DT82__2693391 Bus1=26999714 Bus2=25734570 LineCode=NONE Length=0.001 units=m
New Line.CBN14__2700954 Bus1=27136708 Bus2=1105735 LineCode=NONE Length=0.001 units=m
New Line.12125__2700917 Bus1=27136671 Bus2=25734604 LineCode=NONE Length=0.001 units=m
New Line.8DT82__2693390 Bus1=25734570 Bus2=26999713 LineCode=NONE Length=0.001 units=m
New Line.132356__2701086 Bus1=27136840 Bus2=26555762 LineCode=NONE Length=0.001 units=m
!New Line.18LL90__105931322 Bus1=103649889 Bus2=103649888 LineCode=NONE Length=0.001 units=m
!New Line.18LL90__105931321 Bus1=103649888 Bus2=103649887 LineCode=NONE Length=0.001 units=m
New Line.8DR41__2693056 Bus1=26999379 Bus2=25426804 LineCode=NONE Length=0.001 units=m
New Line.14FX04__2700770 Bus1=26859628 Bus2=27136524 LineCode=NONE Length=0.001 units=m
New Line.8DR41__2693057 Bus1=25426804 Bus2=26999380 LineCode=NONE Length=0.001 units=m
New Line.15QR56__103849303 Bus1=103249181 Bus2=103249208 LineCode=NONE Length=0.001 units=m
New Line.12125__2700918 Bus1=25734604 Bus2=27136672 LineCode=NONE Length=0.001 units=m
New Line.14L809__103098742 Bus1=103041486 Bus2=103041479 LineCode=NONE Length=0.001 units=m
New Line.14FX07__2700743 Bus1=26859623 Bus2=27136497 LineCode=NONE Length=0.001 units=m
New Line.14FX07__2700744 Bus1=27136498 Bus2=26859623 LineCode=NONE Length=0.001 units=m
New Line.13PX95__2693853 Bus1=27000176 Bus2=26709803 LineCode=NONE Length=0.001 units=m
New Line.15QR56__103849304 Bus1=103249210 Bus2=103249181 LineCode=NONE Length=0.001 units=m
New Line.8DT86__2692950 Bus1=103079727 Bus2=25734566 LineCode=NONE Length=0.001 units=m