New Line.105495__103374096 Bus1=103007630.1.2.3 Bus2=103135359.1.2.3 Phases=3 Switch=T
New Line.13L570__2701321 Bus1=26679485.1 Bus2=27137075.1 Phases=1 Switch=T
New Line.106804__2701104 Bus1=27136858.2 Bus2=25836854.2 Phases=1 Switch=T
New Line.106804__2701105 Bus1=25836854.2 Bus2=27136859.2 Phases=1 Switch=T
New Line.144378__2701336 Bus1=26776430.1 Bus2=27137090.1 Phases=1 Switch=T
New Line.106804__2701106 Bus1=25836854.2 Bus2=27136860.2 Phases=1 Switch=T
New Line.13L570__2701322 Bus1=27137076.1 Bus2=26679485.1 Phases=1 Switch=T
New Line.18GC33__105326050 Bus1=103626605.2 Bus2=103626606.2 Phases=1 Switch=T
New Line.106800__2701100 Bus1=25836861.2 Bus2=27136854.2 Phases=1 Switch=T
New Line.186Q94__104672522 Bus1=103527277.2 Bus2=103527276.2 Phases=1 Switch=T
New Line.186Q94__104672521 Bus1=103527276.2 Bus2=103527275.2 Phases=1 Switch=T
New Line.17MN18__104282587 Bus1=103383300.3 Bus2=103383301.3 Phases=1 Switch=T
New Line.17MN18__104282586 Bus1=103383301.3 Bus2=103383302.3 Phases=1 Switch=T
New Line.CBR27__2700959 Bus1=1105418.3 Bus2=27136713.3 Phases=1 Switch=T
New Line.CBR27__2700958 Bus1=27136712.3 Bus2=1105418.3 Phases=1 Switch=T
New Line.183Y96__104696222 Bus1=103537190.1 Bus2=103537122.1 Phases=1 Switch=T
New Line.14Q055__103041320 Bus1=103016834.2 Bus2=103016849.2 Phases=1 Switch=T
New Line.14Q055__103041321 Bus1=103016839.2 Bus2=103016834.2 Phases=1 Switch=T
New Line.G2403__2693084 Bus1=1140149.3 Bus2=26999407.3 Phases=1 Switch=T
New Line.G2402__2693085 Bus1=25747796.3 Bus2=26999408.3 Phases=1 Switch=T
New Line.8DR30__2693046 Bus1=25426802.1 Bus2=26999369.1 Phases=1 Switch=T
New Line.G2402__2693086 Bus1=26999409.3 Bus2=25747796.3 Phases=1 Switch=T
New Line.G2403__2693083 Bus1=26999406.3 Bus2=1140149.3 Phases=1 Switch=T
New Line.8DR30__2693045 Bus1=26999368.1 Bus2=25426802.1 Phases=1 Switch=T
New Line.8DR36__2693047 Bus1=25497403.1 Bus2=26999370.1 Phases=1 Switch=T
New Line.7NX73__2692946 Bus1=25734565.2 Bus2=103079718.2 Phases=1 Switch=T
New Line.7NX73__2692947 Bus1=26999270.2 Bus2=25734565.2 Phases=1 Switch=T
New Line.9WF49__2701060 Bus1=25876081.3 Bus2=27136814.3 Phases=1 Switch=T
New Line.102L21__2701174 Bus1=26755198.2 Bus2=27136928.2 Phases=1 Switch=T
New Line.102L21__2701175 Bus1=27136929.2 Bus2=26755198.2 Phases=1 Switch=T
New Line.17KH67__104218262 Bus1=103359063.1 Bus2=103359064.1 Phases=1 Switch=T
New Line.17KH67__104218263 Bus1=103359062.1 Bus2=103359063.1 Phases=1 Switch=T
New Line.102L19__2701170 Bus1=27136924.2 Bus2=26755197.2 Phases=1 Switch=T
New Line.8DR36__2693048 Bus1=26999371.1 Bus2=25497403.1 Phases=1 Switch=T
New Line.14G317__2679983 Bus1=27146923.1.2.3 Bus2=103016798.1.2.3 Phases=3 Switch=T
New Line.14G317__2679982 Bus1=103036415.1.2.3 Bus2=27146922.1.2.3 Phases=3 Switch=T
New Line.U602BH__2692833 Bus1=26999156.1 Bus2=1139987.1 Phases=1 Switch=T
New Line.U600BH__2692822 Bus1=26999145.1 Bus2=1140076.1 Phases=1 Switch=T
New Line.14L465__2700819 Bus1=103045212.1 Bus2=26887559.1 Phases=1 Switch=T
New Line.U600BH__2692821 Bus1=1140076.1 Bus2=26999144.1 Phases=1 Switch=T
New Line.9AM84__2693537 Bus1=25631609.3 Bus2=26999860.3 Phases=1 Switch=T
New Line.102L18__2701168 Bus1=25750597.2 Bus2=27136922.2 Phases=1 Switch=T
New Line.9AM84__2693536 Bus1=26999859.3 Bus2=25631609.3 Phases=1 Switch=T
New Line.9AM89__2693539 Bus1=25631613.1 Bus2=26999862.1 Phases=1 Switch=T
New Line.102L18__2701169 Bus1=27136923.2 Bus2=25750597.2 Phases=1 Switch=T
New Line.9AM85__2693534 Bus1=26999857.3 Bus2=25631608.3 Phases=1 Switch=T
New Line.9AM89__2693538 Bus1=26999861.1 Bus2=25631613.1 Phases=1 Switch=T
New Line.U602BH__2692835 Bus1=1139987.1 Bus2=26999158.1 Phases=1 Switch=T
New Line.U602BH__2692834 Bus1=1139987.1 Bus2=26999157.1 Phases=1 Switch=T
New Line.9WF47__2700944 Bus1=27136698.3 Bus2=25876080.3 Phases=1 Switch=T
New Line.9WF47__2700946 Bus1=25876080.3 Bus2=27136700.3 Phases=1 Switch=T
New Line.14L810__2700860 Bus1=103048713.2 Bus2=103048712.2 Phases=1 Switch=T
New Line.C1F95__2700899 Bus1=27136653.3 Bus2=25734580.3 Phases=1 Switch=T
New Line.14NJ19__103098846 Bus1=103041526.1 Bus2=103041531.1 Phases=1 Switch=T
New Line.14Q054__103041306 Bus1=103016829.2 Bus2=103016827.2 Phases=1 Switch=T
New Line.14MD35__103098783 Bus1=103048715.3 Bus2=T4795B23_10000005.3 Phases=1 Switch=T
New Line.14Q054__103041305 Bus1=103016827.2 Bus2=103016838.2 Phases=1 Switch=T
New Line.14L466__2700821 Bus1=103125256.1 Bus2=26887560.1 Phases=1 Switch=T
New Line.14L466__2700822 Bus1=26887560.1 Bus2=27136576.1 Phases=1 Switch=T
New Line.186Q95__104672520 Bus1=103527273.1 Bus2=103527272.1 Phases=1 Switch=T
New Line.17MN19__104282580 Bus1=103383279.3 Bus2=103383280.3 Phases=1 Switch=T
New Line.7TX20__2701182 Bus1=27136936.3 Bus2=25360255.3 Phases=1 Switch=T
New Line.11E480__103404104 Bus1=26128170.2 Bus2=103125594.2 Phases=1 Switch=T
New Line.7TX20__2701181 Bus1=25360255.3 Bus2=27136935.3 Phases=1 Switch=T
New Line.9WA88__2700964 Bus1=25873704.1 Bus2=27136718.1 Phases=1 Switch=T
New Line.G250K__2692955 Bus1=26999278.3 Bus2=25734637.3 Phases=1 Switch=T
New Line.G250K__2692956 Bus1=25734637.3 Bus2=26999279.3 Phases=1 Switch=T
New Line.U588BH__2693010 Bus1=1140108.1 Bus2=26999333.1 Phases=1 Switch=T
New Line.9WA88__2700963 Bus1=27136717.1 Bus2=25873704.1 Phases=1 Switch=T
New Line.183Y12__104695296 Bus1=103536834.2 Bus2=103536786.2 Phases=1 Switch=T
New Line.183Y12__104695295 Bus1=103536786.2 Bus2=103536832.2 Phases=1 Switch=T
New Line.PME14__2692868 Bus1=26999191.3 Bus2=25024992.3 Phases=1 Switch=T
New Line.183Y95__104696227 Bus1=103537123.1 Bus2=103537191.1 Phases=1 Switch=T
New Line.PME14__2692869 Bus1=25024992.3 Bus2=26999192.3 Phases=1 Switch=T
New Line.5LT91__2692884 Bus1=26999207.3 Bus2=25024996.3 Phases=1 Switch=T
New Line.5LT91__2692885 Bus1=25024996.3 Bus2=26999208.3 Phases=1 Switch=T
New Line.13F675__2701378 Bus1=103121261.2 Bus2=103121256.2 Phases=1 Switch=T
New Line.15TN74__103913538 Bus1=103265086.3 Bus2=103265159.3 Phases=1 Switch=T
New Line.183Y95__104696228 Bus1=103537194.1 Bus2=103537123.1 Phases=1 Switch=T
New Line.15TN74__103913539 Bus1=103265162.3 Bus2=103265086.3 Phases=1 Switch=T
New Line.A543BH__2692847 Bus1=26999170.3 Bus2=1139897.3 Phases=1 Switch=T
New Line.84Q24__2693040 Bus1=26999363.3 Bus2=25734529.3 Phases=1 Switch=T
New Line.A543BH__2692846 Bus1=1139897.3 Bus2=26999169.3 Phases=1 Switch=T
New Line.D111K__2700919 Bus1=27136673.3 Bus2=25734605.3 Phases=1 Switch=T
New Line.U612BH__2692830 Bus1=26999153.1 Bus2=1140051.1 Phases=1 Switch=T
New Line.13F675__2701377 Bus1=103121242.1 Bus2=103121228.1 Phases=1 Switch=T
New Line.14LH92__2701371 Bus1=27137125.3 Bus2=26907384.3 Phases=1 Switch=T
New Line.17KH66__104218264 Bus1=103359051.1 Bus2=103359052.1 Phases=1 Switch=T
New Line.17KH66__104218265 Bus1=103359052.1 Bus2=103359053.1 Phases=1 Switch=T
New Line.14LH92__2701372 Bus1=26907384.3 Bus2=27137126.3 Phases=1 Switch=T
New Line.14Q053__103041285 Bus1=103025150.2 Bus2=103016818.2 Phases=1 Switch=T
New Line.13PX76__2693873 Bus1=26709810.2 Bus2=27000196.2 Phases=1 Switch=T
New Line.14Q053__103041284 Bus1=103016818.2 Bus2=103016828.2 Phases=1 Switch=T
New Line.17MN22__104282577 Bus1=103383281.3 Bus2=103383282.3 Phases=1 Switch=T
New Line.17MN22__104282578 Bus1=103383282.3 Bus2=103383283.3 Phases=1 Switch=T
New Line.13PX76__2693874 Bus1=27000197.2 Bus2=26709810.2 Phases=1 Switch=T
New Line.18GE31__105436272 Bus1=103631265.2 Bus2=103631268.2 Phases=1 Switch=T
New Line.8EK62__2693050 Bus1=25586104.1 Bus2=26999373.1 Phases=1 Switch=T
New Line.133Y84__2701192 Bus1=27136946.3 Bus2=26567440.3 Phases=1 Switch=T
New Line.18GE31__105436271 Bus1=103631269.2 Bus2=103631265.2 Phases=1 Switch=T
New Line.8EK62__2693051 Bus1=25586104.1 Bus2=26999374.1 Phases=1 Switch=T
New Line.8EK63__2693052 Bus1=25833129.1 Bus2=26999375.1 Phases=1 Switch=T
New Line.8EK63__2693053 Bus1=26999376.1 Bus2=25833129.1 Phases=1 Switch=T
New Line.133Y84__2701191 Bus1=26567440.3 Bus2=27136945.3 Phases=1 Switch=T
New Line.14LJ00__2701349 Bus1=26896049.1 Bus2=27137103.1 Phases=1 Switch=T
New Line.14LJ00__2701348 Bus1=27137102.1 Bus2=26896049.1 Phases=1 Switch=T
New Line.9W757__2701504 Bus1=25858575.1 Bus2=27137258.1 Phases=1 Switch=T
New Line.9W757__2701505 Bus1=27137259.1 Bus2=25858575.1 Phases=1 Switch=T
New Line.14FX05__2700739 Bus1=26859626.1 Bus2=27136493.1 Phases=1 Switch=T
New Line.14LJ03__2701353 Bus1=26896052.1 Bus2=27137107.1 Phases=1 Switch=T
New Line.187W45__104783620 Bus1=103571153.1 Bus2=103571156.1 Phases=1 Switch=T
New Line.14LJ03__2701352 Bus1=27137106.1 Bus2=26896052.1 Phases=1 Switch=T
New Line.8EK65__2693058 Bus1=25586117.1 Bus2=26999381.1 Phases=1 Switch=T
New Line.17MN16__104282583 Bus1=103383285.3 Bus2=103383286.3 Phases=1 Switch=T
New Line.8EK65__2693059 Bus1=26999382.1 Bus2=25586117.1 Phases=1 Switch=T
New Line.17MN16__104282582 Bus1=103383286.3 Bus2=103383287.3 Phases=1 Switch=T
New Line.9W756__2701507 Bus1=27137261.1 Bus2=25858574.1 Phases=1 Switch=T
New Line.8DT83__2693389 Bus1=25734569.3 Bus2=26999712.3 Phases=1 Switch=T
New Line.17BT58__104029639 Bus1=103294957.1.2.3 Bus2=103294837.1.2.3 Phases=3 Switch=T
New Line.7NX02__2692942 Bus1=25734562.2 Bus2=26999265.2 Phases=1 Switch=T
New Line.8DT83__2693388 Bus1=26999711.3 Bus2=25734569.3 Phases=1 Switch=T
New Line.7NX02__2692943 Bus1=26999266.2 Bus2=25734562.2 Phases=1 Switch=T
New Line.13PX89__2693860 Bus1=27000183.3 Bus2=26709745.3 Phases=1 Switch=T
New Line.13PX88__2693857 Bus1=27000180.3 Bus2=26709740.3 Phases=1 Switch=T
New Line.G261K__2693038 Bus1=26999361.3 Bus2=1105100.3 Phases=1 Switch=T
New Line.13PX94__2693852 Bus1=26709797.3 Bus2=27000175.3 Phases=1 Switch=T
New Line.D102K__2701015 Bus1=25734598.1 Bus2=27136769.1 Phases=1 Switch=T
New Line.13PX94__2693851 Bus1=27000174.3 Bus2=26709797.3 Phases=1 Switch=T
New Line.8R721__2685192 Bus1=26991510.2 Bus2=25490385.2 Phases=1 Switch=T
New Line.D102K__2701014 Bus1=27136768.1 Bus2=25734598.1 Phases=1 Switch=T
New Line.9W754__2701508 Bus1=103014538.1 Bus2=25858578.1 Phases=1 Switch=T
New Line.10EH22__2701092 Bus1=27136846.2 Bus2=25917435.2 Phases=1 Switch=T
New Line.13PX88__2693858 Bus1=26709740.3 Bus2=27000181.3 Phases=1 Switch=T
New Line.11E483__2701113 Bus1=26128186.2 Bus2=27136867.2 Phases=1 Switch=T
New Line.8DT86__2692948 Bus1=25734566.3 Bus2=26999271.3 Phases=1 Switch=T
New Line.8DT86__2692949 Bus1=25734566.3 Bus2=26999272.3 Phases=1 Switch=T
New Line.12129__2693815 Bus1=27000138.1 Bus2=1105038.1 Phases=1 Switch=T
New Line.126697__2693607 Bus1=26356916.1 Bus2=26999930.1 Phases=1 Switch=T
New Line.18FA93__105436421 Bus1=103631345.2 Bus2=103631336.2 Phases=1 Switch=T
New Line.D106K__2700910 Bus1=25734600.3 Bus2=27136664.3 Phases=1 Switch=T
New Line.11E483__2701114 Bus1=27136868.2 Bus2=26128186.2 Phases=1 Switch=T
New Line.126697__2693608 Bus1=26999931.1 Bus2=26356916.1 Phases=1 Switch=T
New Line.8DT84__2693063 Bus1=26999386.3 Bus2=25734568.3 Phases=1 Switch=T
New Line.8DT84__2693062 Bus1=25734568.3 Bus2=26999385.3 Phases=1 Switch=T
New Line.11E480__2701123 Bus1=27136877.2 Bus2=26128170.2 Phases=1 Switch=T
New Line.U609BH__2692827 Bus1=26999150.1 Bus2=1139872.1 Phases=1 Switch=T
New Line.18NP34__106231437 Bus1=103666861.2 Bus2=103666848.2 Phases=1 Switch=T
New Line.G253K__2700930 Bus1=27136684.3 Bus2=25734640.3 Phases=1 Switch=T
New Line.G253K__2700931 Bus1=25734640.3 Bus2=27136685.3 Phases=1 Switch=T
New Line.13PX93__2693849 Bus1=27000172.3 Bus2=26709791.3 Phases=1 Switch=T
New Line.17KH65__104218260 Bus1=103359056.2 Bus2=103359057.2 Phases=1 Switch=T
New Line.U609BH__2692828 Bus1=1139872.1 Bus2=26999151.1 Phases=1 Switch=T
New Line.17KH65__104218261 Bus1=103359055.2 Bus2=103359056.2 Phases=1 Switch=T
New Line.12AK60__2701055 Bus1=27136809.1 Bus2=26387839.1 Phases=1 Switch=T
New Line.12AK60__2701054 Bus1=26387839.1 Bus2=27136808.1 Phases=1 Switch=T
New Line.14FX08__2700746 Bus1=103322576.1 Bus2=26859622.1 Phases=1 Switch=T
New Line.9WA93__2701524 Bus1=27137278.1 Bus2=25873713.1 Phases=1 Switch=T
New Line.9WA93__2701523 Bus1=25873713.1 Bus2=27137277.1 Phases=1 Switch=T
New Line.D860K__2693066 Bus1=1105214.3 Bus2=26999389.3 Phases=1 Switch=T
New Line.14L346__2700816 Bus1=27136570.2 Bus2=26887528.2 Phases=1 Switch=T
New Line.D860K__2693067 Bus1=26999390.3 Bus2=1105214.3 Phases=1 Switch=T
New Line.14L342__2700818 Bus1=26887523.2 Bus2=27136572.2 Phases=1 Switch=T
New Line.D862K__2692910 Bus1=1105379.3 Bus2=26999233.3 Phases=1 Switch=T
New Line.17DH83__104079498 Bus1=103307204.1 Bus2=103307205.1 Phases=1 Switch=T
New Line.183Y93__104696246 Bus1=103537127.1 Bus2=103537208.1 Phases=1 Switch=T
New Line.14L342__2700817 Bus1=27136571.2 Bus2=26887523.2 Phases=1 Switch=T
New Line.183Y93__104696245 Bus1=103543459.1 Bus2=103537127.1 Phases=1 Switch=T
New Line.105P72__2680188 Bus1=26835313.1.2.3 Bus2=25856674.1.2.3 Phases=3 Switch=T
New Line.G251K__2692957 Bus1=25734638.3 Bus2=26999280.3 Phases=1 Switch=T
New Line.8DW53__103222931 Bus1=103079711.2 Bus2=103079706.2 Phases=1 Switch=T
New Line.G251K__2692958 Bus1=26999281.3 Bus2=25734638.3 Phases=1 Switch=T
New Line.132351__2693142 Bus1=26555727.2 Bus2=26999465.2 Phases=1 Switch=T
New Line.7NW66__2692937 Bus1=26999260.2 Bus2=25734559.2 Phases=1 Switch=T
New Line.7NW66__2692936 Bus1=25734559.2 Bus2=26999259.2 Phases=1 Switch=T
New Line.132351__2693141 Bus1=26999464.2 Bus2=26555727.2 Phases=1 Switch=T
New Line.13PX82__2693791 Bus1=26709841.1 Bus2=27000114.1 Phases=1 Switch=T
New Line.132360__2693158 Bus1=26999481.2 Bus2=26555789.2 Phases=1 Switch=T
New Line.13PX82__2693790 Bus1=27000113.1 Bus2=26709841.1 Phases=1 Switch=T
New Line.D114K__2701029 Bus1=25734586.1 Bus2=27136783.1 Phases=1 Switch=T
New Line.132360__2693159 Bus1=26555789.2 Bus2=26999482.2 Phases=1 Switch=T
New Line.D114K__2701028 Bus1=27136782.1 Bus2=25734586.1 Phases=1 Switch=T
New Line.14L472__103913766 Bus1=103282197.3 Bus2=26887569.3 Phases=1 Switch=T
New Line.107H65__2693080 Bus1=25894028.1.2.3 Bus2=26999403.1.2.3 Phases=3 Switch=T
New Line.13L576__2701331 Bus1=27137085.1 Bus2=26679492.1 Phases=1 Switch=T
New Line.13L576__2701332 Bus1=26679492.1 Bus2=27137086.1 Phases=1 Switch=T
New Line.7X078__2701190 Bus1=25360254.3 Bus2=27136944.3 Phases=1 Switch=T
New Line.G9Z21__103450799 Bus1=25859631.1.2.3 Bus2=103136725.1.2.3 Phases=3 Switch=T
New Line.13L571__2701324 Bus1=27137078.1 Bus2=26679486.1 Phases=1 Switch=T
New Line.106805__2701101 Bus1=27136855.2 Bus2=25836859.2 Phases=1 Switch=T
New Line.106805__2701102 Bus1=25836859.2 Bus2=27136856.2 Phases=1 Switch=T
New Line.144380__2701343 Bus1=27137097.1 Bus2=26776418.1 Phases=1 Switch=T
New Line.13L571__2701323 Bus1=26679486.1 Bus2=27137077.1 Phases=1 Switch=T
New Line.144380__2701344 Bus1=26776418.1 Bus2=27137098.1 Phases=1 Switch=T
New Line.144381__2701339 Bus1=27137093.1 Bus2=26776411.1 Phases=1 Switch=T
New Line.116C33__2700966 Bus1=27136720.1 Bus2=25873717.1 Phases=1 Switch=T
New Line.116C33__2700967 Bus1=25873717.1 Bus2=27136721.1 Phases=1 Switch=T
New Line.5R684__2701009 Bus1=27136763.1 Bus2=26281698.1 Phases=1 Switch=T
New Line.106801__2701103 Bus1=27136857.2 Bus2=25836871.2 Phases=1 Switch=T
New Line.12133__2700960 Bus1=27136714.3 Bus2=1105420.3 Phases=1 Switch=T
New Line.17MN20__104282573 Bus1=103383290.3 Bus2=103383291.3 Phases=1 Switch=T
New Line.7WL55__2701149 Bus1=25360338.3 Bus2=27136903.3 Phases=1 Switch=T
New Line.NV06__2692870 Bus1=26999193.3 Bus2=25024993.3 Phases=1 Switch=T
New Line.NV06__2692871 Bus1=25024993.3 Bus2=26999194.3 Phases=1 Switch=T
New Line.13L569__2701320 Bus1=27137074.1 Bus2=26679484.1 Phases=1 Switch=T
New Line.17MN20__104282574 Bus1=103383289.3 Bus2=103383290.3 Phases=1 Switch=T
New Line.183Y07__104695264 Bus1=103536804.2 Bus2=103536773.2 Phases=1 Switch=T
New Line.183Y07__104695265 Bus1=103536773.2 Bus2=103536805.2 Phases=1 Switch=T
New Line.18PH82__104696193 Bus1=103672968.1 Bus2=103537114.1 Phases=1 Switch=T
New Line.102L15__2701164 Bus1=25750593.2 Bus2=27136918.2 Phases=1 Switch=T
New Line.12132__2700884 Bus1=1105334.3 Bus2=27136638.3 Phases=1 Switch=T
New Line.102L15__2701165 Bus1=27136919.2 Bus2=25750593.2 Phases=1 Switch=T
New Line.8DT90__2693024 Bus1=25734535.2 Bus2=26999347.2 Phases=1 Switch=T
New Line.A538BH__2692842 Bus1=1139960.3 Bus2=26999165.3 Phases=1 Switch=T
New Line.A538BH__2692843 Bus1=26999166.3 Bus2=1139960.3 Phases=1 Switch=T
New Line.12132__2700883 Bus1=27136637.3 Bus2=1105334.3 Phases=1 Switch=T
New Line.9AM82__2693549 Bus1=25631621.2 Bus2=26999872.2 Phases=1 Switch=T
New Line.18PH82__104696194 Bus1=103537114.1 Bus2=103537160.1 Phases=1 Switch=T
New Line.9AM82__2693548 Bus1=26999871.2 Bus2=25631621.2 Phases=1 Switch=T
New Line.18GC38__105326046 Bus1=103626603.2 Bus2=103626602.2 Phases=1 Switch=T
New Line.8DT90__2693023 Bus1=26999346.2 Bus2=25734535.2 Phases=1 Switch=T
New Line.18GC38__105326045 Bus1=103626602.2 Bus2=103626601.2 Phases=1 Switch=T
New Line.9AM83__2693543 Bus1=25631615.1 Bus2=26999866.1 Phases=1 Switch=T
New Line.A536BH__2692838 Bus1=26999161.3 Bus2=1139948.3 Phases=1 Switch=T
New Line.9AM83__2693542 Bus1=26999865.1 Bus2=25631615.1 Phases=1 Switch=T
New Line.A536BH__2692839 Bus1=1139948.3 Bus2=26999162.3 Phases=1 Switch=T
New Line.D105K__2700907 Bus1=27136661.3 Bus2=25734599.3 Phases=1 Switch=T
New Line.G2401__2692855 Bus1=26999178.3 Bus2=1140163.3 Phases=1 Switch=T
New Line.10DQ79__2676996 Bus1=26331048.1.2.3 Bus2=26331050.1.2.3 Phases=3 Switch=T
New Line.8DT93__2693187 Bus1=25734536.2 Bus2=26999510.2 Phases=1 Switch=T
New Line.8DT94__2693185 Bus1=26999508.2 Bus2=25734537.2 Phases=1 Switch=T
New Line.9AM81__2693547 Bus1=25631620.2 Bus2=26999870.2 Phases=1 Switch=T
New Line.G2400__2692852 Bus1=26999175.3 Bus2=1140165.3 Phases=1 Switch=T
New Line.7NX16__2692944 Bus1=26999267.2 Bus2=25734564.2 Phases=1 Switch=T
New Line.9AM81__2693546 Bus1=26999869.2 Bus2=25631620.2 Phases=1 Switch=T
New Line.G2400__2692853 Bus1=1140165.3 Bus2=26999176.3 Phases=1 Switch=T
New Line.7NX16__2692945 Bus1=25734564.2 Bus2=26999268.2 Phases=1 Switch=T
New Line.9AM80__2693544 Bus1=26999867.2 Bus2=25631619.2 Phases=1 Switch=T
New Line.8DT94__2693186 Bus1=25734537.2 Bus2=26999509.2 Phases=1 Switch=T
New Line.8DT95__2693184 Bus1=25734538.2 Bus2=26999507.2 Phases=1 Switch=T
New Line.106803__2701093 Bus1=27136847.2 Bus2=25836872.2 Phases=1 Switch=T
New Line.ABE44K__2693065 Bus1=1105216.3 Bus2=26999388.3 Phases=1 Switch=T
New Line.G252K__2700925 Bus1=25734639.3 Bus2=27136679.3 Phases=1 Switch=T
New Line.U606BH__2692823 Bus1=1139989.1 Bus2=26999146.1 Phases=1 Switch=T
New Line.8DT93__2693189 Bus1=25734536.2 Bus2=26999512.2 Phases=1 Switch=T
New Line.8DT95__2693183 Bus1=26999506.2 Bus2=25734538.2 Phases=1 Switch=T
New Line.ABE44K__2693064 Bus1=26999387.3 Bus2=1105216.3 Phases=1 Switch=T
New Line.G252K__2700926 Bus1=27136680.3 Bus2=25734639.3 Phases=1 Switch=T
New Line.8DT93__2693188 Bus1=26999511.2 Bus2=25734536.2 Phases=1 Switch=T
New Line.C0H28__2692908 Bus1=1105435.3 Bus2=26999231.3 Phases=1 Switch=T
New Line.U604BH__2692837 Bus1=26999160.1 Bus2=1139985.1 Phases=1 Switch=T
New Line.8DT96__2693182 Bus1=26999505.2 Bus2=25859415.2 Phases=1 Switch=T
New Line.U604BH__2692836 Bus1=1139985.1 Bus2=26999159.1 Phases=1 Switch=T
New Line.106802__2701088 Bus1=25836860.2 Bus2=27136842.2 Phases=1 Switch=T
New Line.U606BH__2692824 Bus1=26999147.1 Bus2=1139989.1 Phases=1 Switch=T
New Line.106802__2701089 Bus1=27136843.2 Bus2=25836860.2 Phases=1 Switch=T
New Line.9WF46__2701038 Bus1=27136792.3 Bus2=25876077.3 Phases=1 Switch=T
New Line.9WF46__2701039 Bus1=25876077.3 Bus2=27136793.3 Phases=1 Switch=T
New Line.14L471__2700848 Bus1=26887566.2 Bus2=27136602.2 Phases=1 Switch=T
New Line.15TN73__103913534 Bus1=103265085.3 Bus2=103265155.3 Phases=1 Switch=T
New Line.14L467__2700824 Bus1=26887562.2 Bus2=103125252.2 Phases=1 Switch=T
New Line.15TN73__103913535 Bus1=103265158.3 Bus2=103265085.3 Phases=1 Switch=T
New Line.C0H28__2692907 Bus1=26999230.3 Bus2=1105435.3 Phases=1 Switch=T
New Line.C1F95__2700900 Bus1=25734580.3 Bus2=27136654.3 Phases=1 Switch=T
New Line.G258K__2700938 Bus1=1105332.3 Bus2=27136692.3 Phases=1 Switch=T
New Line.G258K__2700939 Bus1=27136693.3 Bus2=1105332.3 Phases=1 Switch=T
!New Line.18LL87__105931319 Bus1=103649895. Bus2=103649896. Phases=3 Switch=T
New Line.14L467__2700823 Bus1=27136577.2 Bus2=26887562.2 Phases=1 Switch=T
New Line.D864K__2700881 Bus1=27136635.3 Bus2=1105452.3 Phases=1 Switch=T
New Line.14L470__2700830 Bus1=26887565.2 Bus2=27136584.2 Phases=1 Switch=T
New Line.D864K__2700882 Bus1=1105452.3 Bus2=27136636.3 Phases=1 Switch=T
New Line.14L463__2700861 Bus1=103400446.1 Bus2=103400443.1 Phases=1 Switch=T
New Line.132414__2693116 Bus1=26999439.1 Bus2=26555830.1 Phases=1 Switch=T
New Line.132414__2693117 Bus1=26555830.1 Bus2=26999440.1 Phases=1 Switch=T
New Line.132416__2693138 Bus1=26999461.1 Bus2=26555820.1 Phases=1 Switch=T
New Line.7NW93__2692941 Bus1=26999264.2 Bus2=25734561.2 Phases=1 Switch=T
New Line.7NW93__2692940 Bus1=25734561.2 Bus2=26999263.2 Phases=1 Switch=T
New Line.7TX21__2701177 Bus1=25360251.3 Bus2=27136931.3 Phases=1 Switch=T
New Line.D115K__2701027 Bus1=25734587.1 Bus2=27136781.1 Phases=1 Switch=T
New Line.D115K__2701026 Bus1=27136780.1 Bus2=25734587.1 Phases=1 Switch=T
New Line.7TX21__2701179 Bus1=27136933.3 Bus2=25360251.3 Phases=1 Switch=T
New Line.U588BH__2693009 Bus1=26999332.1 Bus2=1140108.1 Phases=1 Switch=T
New Line.84Q25__2693034 Bus1=25734525.3 Bus2=26999357.3 Phases=1 Switch=T
New Line.84Q26__2693031 Bus1=25734528.3 Bus2=26999354.3 Phases=1 Switch=T
New Line.84Q25__2693033 Bus1=25734525.3 Bus2=26999356.3 Phases=1 Switch=T
New Line.84Q26__2693030 Bus1=25734528.3 Bus2=26999353.3 Phases=1 Switch=T
New Line.84Q25__2693032 Bus1=26999355.3 Bus2=25734525.3 Phases=1 Switch=T
New Line.D111K__2700920 Bus1=25734605.3 Bus2=27136674.3 Phases=1 Switch=T
New Line.A549BH__2692841 Bus1=1140071.3 Bus2=26999164.3 Phases=1 Switch=T
New Line.A541BH__2692845 Bus1=26999168.3 Bus2=1139951.3 Phases=1 Switch=T
New Line.A549BH__2692840 Bus1=26999163.3 Bus2=1140071.3 Phases=1 Switch=T
New Line.A541BH__2692844 Bus1=1139951.3 Bus2=26999167.3 Phases=1 Switch=T
New Line.184Q58__104712820 Bus1=103543473.1 Bus2=103543472.1 Phases=1 Switch=T
New Line.84Q24__2693039 Bus1=25734529.3 Bus2=26999362.3 Phases=1 Switch=T
New Line.8DW53__103222932 Bus1=103079707.2 Bus2=103079713.2 Phases=1 Switch=T
New Line.14LH95__2701357 Bus1=27137111.1 Bus2=26896054.1 Phases=1 Switch=T
New Line.12128__2700912 Bus1=25734601.3 Bus2=27136666.3 Phases=1 Switch=T
New Line.2YC86__2700879 Bus1=27136633.3 Bus2=1105450.3 Phases=1 Switch=T
New Line.12128__2700911 Bus1=27136665.3 Bus2=25734601.3 Phases=1 Switch=T
New Line.14LH93__2701370 Bus1=26907383.3 Bus2=27137124.3 Phases=1 Switch=T
New Line.18GC35__105326043 Bus1=103626609.2 Bus2=103626610.2 Phases=1 Switch=T
New Line.13PX78__2693880 Bus1=27000203.2 Bus2=26709824.2 Phases=1 Switch=T
New Line.15QR59__103849343 Bus1=103249223.1 Bus2=103249189.1 Phases=1 Switch=T
New Line.13PX77__2693876 Bus1=27000199.2 Bus2=26709815.2 Phases=1 Switch=T
New Line.13PX77__2693875 Bus1=26709815.2 Bus2=27000198.2 Phases=1 Switch=T
New Line.6TE37__2701140 Bus1=27136894.1 Bus2=25359988.1 Phases=1 Switch=T
New Line.CBN13__2700957 Bus1=1105733.3 Bus2=27136711.3 Phases=1 Switch=T
New Line.14L810__103098773 Bus1=103048711.2 Bus2=T4795B23_10000004.2 Phases=1 Switch=T
New Line.8EK62__2693049 Bus1=26999372.1 Bus2=25586104.1 Phases=1 Switch=T
New Line.CBN13__2700956 Bus1=27136710.3 Bus2=1105733.3 Phases=1 Switch=T
New Line.15QR59__103849345 Bus1=103249189.1 Bus2=103249218.1 Phases=1 Switch=T
New Line.6TE35__2701141 Bus1=27136895.1 Bus2=25359972.1 Phases=1 Switch=T
New Line.CBN16__2700952 Bus1=27136706.3 Bus2=1105719.3 Phases=1 Switch=T
New Line.6TE35__2701142 Bus1=25359972.1 Bus2=27136896.1 Phases=1 Switch=T
New Line.8DR38__104508465 Bus1=103462488.1 Bus2=103462493.1 Phases=1 Switch=T
New Line.12127__2700914 Bus1=25734602.3 Bus2=27136668.3 Phases=1 Switch=T
New Line.12126__2700916 Bus1=25734603.3 Bus2=27136670.3 Phases=1 Switch=T
New Line.106797__2701119 Bus1=27136873.2 Bus2=25836866.2 Phases=1 Switch=T
New Line.12127__2700913 Bus1=27136667.3 Bus2=25734602.3 Phases=1 Switch=T
New Line.158E26__103192138 Bus1=103072060.2 Bus2=103072055.2 Phases=1 Switch=T
New Line.CBN14__2700955 Bus1=1105735.3 Bus2=27136709.3 Phases=1 Switch=T
New Line.12126__2700915 Bus1=27136669.3 Bus2=25734603.3 Phases=1 Switch=T
New Line.8DT82__2693391 Bus1=26999714.3 Bus2=25734570.3 Phases=1 Switch=T
New Line.CBN14__2700954 Bus1=27136708.3 Bus2=1105735.3 Phases=1 Switch=T
New Line.12125__2700917 Bus1=27136671.3 Bus2=25734604.3 Phases=1 Switch=T
New Line.8DT82__2693390 Bus1=25734570.3 Bus2=26999713.3 Phases=1 Switch=T
New Line.132356__2701086 Bus1=27136840.2 Bus2=26555762.2 Phases=1 Switch=T
!New Line.18LL90__105931322 Bus1=103649889. Bus2=103649888. Phases=3 Switch=T
!New Line.18LL90__105931321 Bus1=103649888.1 Bus2=103649887.1 Phases=1 Switch=T
New Line.8DR41__2693056 Bus1=26999379.1 Bus2=25426804.1 Phases=1 Switch=T
New Line.14FX04__2700770 Bus1=26859628.1 Bus2=27136524.1 Phases=1 Switch=T
New Line.8DR41__2693057 Bus1=25426804.1 Bus2=26999380.1 Phases=1 Switch=T
New Line.15QR56__103849303 Bus1=103249181.1 Bus2=103249208.1 Phases=1 Switch=T
New Line.12125__2700918 Bus1=25734604.3 Bus2=27136672.3 Phases=1 Switch=T
New Line.14L809__103098742 Bus1=103041486.1 Bus2=103041479.1 Phases=1 Switch=T
New Line.14FX07__2700743 Bus1=26859623.1 Bus2=27136497.1 Phases=1 Switch=T
New Line.14FX07__2700744 Bus1=27136498.1 Bus2=26859623.1 Phases=1 Switch=T
New Line.13PX95__2693853 Bus1=27000176.3 Bus2=26709803.3 Phases=1 Switch=T
New Line.15QR56__103849304 Bus1=103249210.1 Bus2=103249181.1 Phases=1 Switch=T
New Line.8DT86__2692950 Bus1=103079727.3 Bus2=25734566.3 Phases=1 Switch=T
New Line.11E484__2701111 Bus1=26128192.2 Bus2=27136865.2 Phases=1 Switch=T
New Line.13PX89__2693859 Bus1=26709745.3 Bus2=27000182.3 Phases=1 Switch=T
New Line.15QR58__103849329 Bus1=103249217.1 Bus2=103249185.1 Phases=1 Switch=T
New Line.18KP64__105820258 Bus1=103645578.1 Bus2=103645577.1 Phases=1 Switch=T
New Line.8DT85__2692951 Bus1=25734567.3 Bus2=26999274.3 Phases=1 Switch=T
New Line.126696__2693605 Bus1=26356911.1 Bus2=26999928.1 Phases=1 Switch=T
New Line.18KP64__105820259 Bus1=103645579.1 Bus2=103645578.1 Phases=1 Switch=T
New Line.8DT85__2692952 Bus1=26999275.3 Bus2=25734567.3 Phases=1 Switch=T
New Line.11E484__2701112 Bus1=27136866.2 Bus2=26128192.2 Phases=1 Switch=T
New Line.126696__2693606 Bus1=26999929.1 Bus2=26356911.1 Phases=1 Switch=T
New Line.13PX80__2693882 Bus1=27000205.2 Bus2=26709829.2 Phases=1 Switch=T
New Line.13PX95__2693854 Bus1=26709803.3 Bus2=27000177.3 Phases=1 Switch=T
New Line.13PX96__2693862 Bus1=27000185.3 Bus2=26709751.3 Phases=1 Switch=T
New Line.13PX85__2693856 Bus1=26709857.1 Bus2=27000179.1 Phases=1 Switch=T
New Line.13PX96__2693861 Bus1=26709751.3 Bus2=27000184.3 Phases=1 Switch=T
New Line.13PX85__2693855 Bus1=27000178.1 Bus2=26709857.1 Phases=1 Switch=T
New Line.9AM90__2693541 Bus1=25631614.1 Bus2=26999864.1 Phases=1 Switch=T
New Line.9AM90__2693540 Bus1=26999863.1 Bus2=25631614.1 Phases=1 Switch=T
New Line.12AK62__2701081 Bus1=27136835.1 Bus2=26387826.1 Phases=1 Switch=T
New Line.12AK62__2701080 Bus1=26387826.1 Bus2=27136834.1 Phases=1 Switch=T
New Line.12AK65__2701053 Bus1=27136807.2 Bus2=26387805.2 Phases=1 Switch=T
New Line.12AK65__2701052 Bus1=26387805.2 Bus2=27136806.2 Phases=1 Switch=T
New Line.14Q050__103267066 Bus1=103091336.1.2.3 Bus2=103091333.1.2.3 Phases=3 Switch=T
New Line.11E481__2701122 Bus1=27136876.2 Bus2=26128176.2 Phases=1 Switch=T
New Line.D100K__2701019 Bus1=25734594.1 Bus2=27136773.1 Phases=1 Switch=T
New Line.15TN71__103913518 Bus1=103265149.3 Bus2=103265082.3 Phases=1 Switch=T
New Line.D100K__2701018 Bus1=27136772.1 Bus2=25734594.1 Phases=1 Switch=T
New Line.PBB35__2693006 Bus1=1140265.1 Bus2=26999329.1 Phases=1 Switch=T
New Line.15TN71__103913517 Bus1=103265082.3 Bus2=103265146.3 Phases=1 Switch=T
New Line.D106K__2700909 Bus1=27136663.3 Bus2=25734600.3 Phases=1 Switch=T
New Line.PBB35__2693004 Bus1=26999327.1 Bus2=1140265.1 Phases=1 Switch=T
New Line.PBB36__2693001 Bus1=26999324.1 Bus2=25234913.1 Phases=1 Switch=T
New Line.7TX18__2701163 Bus1=25360256.3 Bus2=27136917.3 Phases=1 Switch=T
New Line.G2636__2692881 Bus1=25025000.3 Bus2=26999204.3 Phases=1 Switch=T
New Line.7TX18__2701162 Bus1=103125604.3 Bus2=25360256.3 Phases=1 Switch=T
New Line.G2636__2692880 Bus1=26999203.3 Bus2=25025000.3 Phases=1 Switch=T
New Line.10D187__2679679 Bus1=25905475.1.2.3 Bus2=26835312.1.2.3 Phases=3 Switch=T
New Line.9AM79__2693531 Bus1=25631618.2 Bus2=26999854.2 Phases=1 Switch=T
New Line.9AM79__2693530 Bus1=26999853.2 Bus2=25631618.2 Phases=1 Switch=T
New Line.7NX29__2693026 Bus1=26999349.3 Bus2=25734532.3 Phases=1 Switch=T
New Line.7NX29__2693025 Bus1=25734532.3 Bus2=26999348.3 Phases=1 Switch=T
New Line.9AM78__2693533 Bus1=25631617.2 Bus2=26999856.2 Phases=1 Switch=T
New Line.9AM78__2693532 Bus1=26999855.2 Bus2=25631617.2 Phases=1 Switch=T
New Line.PBB38__2692849 Bus1=1139895.3 Bus2=26999172.3 Phases=1 Switch=T
New Line.7MX02__2701145 Bus1=27136899.1 Bus2=25356096.1 Phases=1 Switch=T
New Line.PBB38__2692848 Bus1=26999171.3 Bus2=1139895.3 Phases=1 Switch=T
New Line.7MX03__2701147 Bus1=27136901.1 Bus2=25356093.1 Phases=1 Switch=T
New Line.U589BH__2693007 Bus1=26999330.1 Bus2=1140263.1 Phases=1 Switch=T
New Line.7MX03__2701146 Bus1=25356093.1 Bus2=27136900.1 Phases=1 Switch=T
New Line.132357__2693136 Bus1=26555768.2 Bus2=26999459.2 Phases=1 Switch=T
New Line.132357__2693137 Bus1=26999460.2 Bus2=26555768.2 Phases=1 Switch=T
New Line.14L343__2700813 Bus1=26887524.2 Bus2=27136567.2 Phases=1 Switch=T
New Line.NV02BH__2692879 Bus1=25024999.1 Bus2=26999202.1 Phases=1 Switch=T
New Line.132354__2693122 Bus1=26999445.2 Bus2=26555750.2 Phases=1 Switch=T
New Line.14L343__2700812 Bus1=27136566.2 Bus2=26887524.2 Phases=1 Switch=T
New Line.NV02BH__2692878 Bus1=26999201.1 Bus2=25024999.1 Phases=1 Switch=T
New Line.132354__2693123 Bus1=26555750.2 Bus2=26999446.2 Phases=1 Switch=T
New Line.14Q056__103041353 Bus1=103016847.2 Bus2=103016861.2 Phases=1 Switch=T