New Line.105495__103374096 Bus1=103007630 Bus2=103135359 Switch=T
New SwtControl.105495__103374096 SwitchedObj=LINE.105495__103374096 SwitchedTerm=2 Action=Closed Lock=no
New Line.13L570__2701321 Bus1=26679485 Bus2=27137075 Switch=T
New SwtControl.13L570__2701321 SwitchedObj=LINE.13L570__2701321 SwitchedTerm=2 Action=Closed Lock=no
New Line.106804__2701104 Bus1=27136858 Bus2=25836854 Switch=T
New SwtControl.106804__2701104 SwitchedObj=LINE.106804__2701104 SwitchedTerm=2 Action=Closed Lock=no
New Line.106804__2701105 Bus1=25836854 Bus2=27136859 Switch=T
New SwtControl.106804__2701105 SwitchedObj=LINE.106804__2701105 SwitchedTerm=2 Action=Closed Lock=no
New Line.144378__2701336 Bus1=26776430 Bus2=27137090 Switch=T
New SwtControl.144378__2701336 SwitchedObj=LINE.144378__2701336 SwitchedTerm=2 Action=Closed Lock=no
New Line.106804__2701106 Bus1=25836854 Bus2=27136860 Switch=T
New SwtControl.106804__2701106 SwitchedObj=LINE.106804__2701106 SwitchedTerm=2 Action=Closed Lock=no
New Line.13L570__2701322 Bus1=27137076 Bus2=26679485 Switch=T
New SwtControl.13L570__2701322 SwitchedObj=LINE.13L570__2701322 SwitchedTerm=2 Action=Closed Lock=no
New Line.18GC33__105326050 Bus1=103626605 Bus2=103626606 Switch=T
New SwtControl.18GC33__105326050 SwitchedObj=LINE.18GC33__105326050 SwitchedTerm=2 Action=Closed Lock=no
New Line.106800__2701100 Bus1=25836861 Bus2=27136854 Switch=T
New SwtControl.106800__2701100 SwitchedObj=LINE.106800__2701100 SwitchedTerm=2 Action=Closed Lock=no
New Line.186Q94__104672522 Bus1=103527277 Bus2=103527276 Switch=T
New SwtControl.186Q94__104672522 SwitchedObj=LINE.186Q94__104672522 SwitchedTerm=2 Action=Closed Lock=no
New Line.186Q94__104672521 Bus1=103527276 Bus2=103527275 Switch=T
New SwtControl.186Q94__104672521 SwitchedObj=LINE.186Q94__104672521 SwitchedTerm=2 Action=Closed Lock=no
New Line.17MN18__104282587 Bus1=103383300 Bus2=103383301 Switch=T
New SwtControl.17MN18__104282587 SwitchedObj=LINE.17MN18__104282587 SwitchedTerm=2 Action=Closed Lock=no
New Line.17MN18__104282586 Bus1=103383301 Bus2=103383302 Switch=T
New SwtControl.17MN18__104282586 SwitchedObj=LINE.17MN18__104282586 SwitchedTerm=2 Action=Closed Lock=no
New Line.CBR27__2700959 Bus1=1105418 Bus2=27136713 Switch=T
New SwtControl.CBR27__2700959 SwitchedObj=LINE.CBR27__2700959 SwitchedTerm=2 Action=Closed Lock=no
New Line.CBR27__2700958 Bus1=27136712 Bus2=1105418 Switch=T
New SwtControl.CBR27__2700958 SwitchedObj=LINE.CBR27__2700958 SwitchedTerm=2 Action=Closed Lock=no
New Line.183Y96__104696222 Bus1=103537190 Bus2=103537122 Switch=T
New SwtControl.183Y96__104696222 SwitchedObj=LINE.183Y96__104696222 SwitchedTerm=2 Action=Closed Lock=no
New Line.14Q055__103041320 Bus1=103016834 Bus2=103016849 Switch=T
New SwtControl.14Q055__103041320 SwitchedObj=LINE.14Q055__103041320 SwitchedTerm=2 Action=Closed Lock=no
New Line.14Q055__103041321 Bus1=103016839 Bus2=103016834 Switch=T
New SwtControl.14Q055__103041321 SwitchedObj=LINE.14Q055__103041321 SwitchedTerm=2 Action=Closed Lock=no
New Line.G2403__2693084 Bus1=1140149 Bus2=26999407 Switch=T
New SwtControl.G2403__2693084 SwitchedObj=LINE.G2403__2693084 SwitchedTerm=2 Action=Closed Lock=no
New Line.G2402__2693085 Bus1=25747796 Bus2=26999408 Switch=T
New SwtControl.G2402__2693085 SwitchedObj=LINE.G2402__2693085 SwitchedTerm=2 Action=Closed Lock=no
New Line.8DR30__2693046 Bus1=25426802 Bus2=26999369 Switch=T
New SwtControl.8DR30__2693046 SwitchedObj=LINE.8DR30__2693046 SwitchedTerm=2 Action=Closed Lock=no
New Line.G2402__2693086 Bus1=26999409 Bus2=25747796 Switch=T
New SwtControl.G2402__2693086 SwitchedObj=LINE.G2402__2693086 SwitchedTerm=2 Action=Closed Lock=no
New Line.G2403__2693083 Bus1=26999406 Bus2=1140149 Switch=T
New SwtControl.G2403__2693083 SwitchedObj=LINE.G2403__2693083 SwitchedTerm=2 Action=Closed Lock=no
New Line.8DR30__2693045 Bus1=26999368 Bus2=25426802 Switch=T
New SwtControl.8DR30__2693045 SwitchedObj=LINE.8DR30__2693045 SwitchedTerm=2 Action=Closed Lock=no
New Line.8DR36__2693047 Bus1=25497403 Bus2=26999370 Switch=T
New SwtControl.8DR36__2693047 SwitchedObj=LINE.8DR36__2693047 SwitchedTerm=2 Action=Closed Lock=no
New Line.7NX73__2692946 Bus1=25734565 Bus2=103079718 Switch=T
New SwtControl.7NX73__2692946 SwitchedObj=LINE.7NX73__2692946 SwitchedTerm=2 Action=Closed Lock=no
New Line.7NX73__2692947 Bus1=26999270 Bus2=25734565 Switch=T
New SwtControl.7NX73__2692947 SwitchedObj=LINE.7NX73__2692947 SwitchedTerm=2 Action=Closed Lock=no
New Line.9WF49__2701060 Bus1=25876081 Bus2=27136814 Switch=T
New SwtControl.9WF49__2701060 SwitchedObj=LINE.9WF49__2701060 SwitchedTerm=2 Action=Closed Lock=no
New Line.102L21__2701174 Bus1=26755198 Bus2=27136928 Switch=T
New SwtControl.102L21__2701174 SwitchedObj=LINE.102L21__2701174 SwitchedTerm=2 Action=Closed Lock=no
New Line.102L21__2701175 Bus1=27136929 Bus2=26755198 Switch=T
New SwtControl.102L21__2701175 SwitchedObj=LINE.102L21__2701175 SwitchedTerm=2 Action=Closed Lock=no
New Line.17KH67__104218262 Bus1=103359063 Bus2=103359064 Switch=T
New SwtControl.17KH67__104218262 SwitchedObj=LINE.17KH67__104218262 SwitchedTerm=2 Action=Closed Lock=no
New Line.17KH67__104218263 Bus1=103359062 Bus2=103359063 Switch=T
New SwtControl.17KH67__104218263 SwitchedObj=LINE.17KH67__104218263 SwitchedTerm=2 Action=Closed Lock=no
New Line.102L19__2701170 Bus1=27136924 Bus2=26755197 Switch=T
New SwtControl.102L19__2701170 SwitchedObj=LINE.102L19__2701170 SwitchedTerm=2 Action=Closed Lock=no
New Line.8DR36__2693048 Bus1=26999371 Bus2=25497403 Switch=T
New SwtControl.8DR36__2693048 SwitchedObj=LINE.8DR36__2693048 SwitchedTerm=2 Action=Closed Lock=no
!New Line.8DT97__2693891 Bus1=27000214 Bus2=T4795B23_10000002 Switch=T
!New SwtControl.8DT97__2693891 SwitchedObj=LINE.8DT97__2693891 SwitchedTerm=2 Action=Open Lock=no
!New Line.102L19__2701171 Bus1=26755197 Bus2=27136925 Switch=T
!New SwtControl.102L19__2701171 SwitchedObj=LINE.102L19__2701171 SwitchedTerm=2 Action=Open Lock=no
New Line.14G317__2679983 Bus1=27146923 Bus2=103016798 Switch=T
New SwtControl.14G317__2679983 SwitchedObj=LINE.14G317__2679983 SwitchedTerm=2 Action=Closed Lock=no
New Line.14G317__2679982 Bus1=103036415 Bus2=27146922 Switch=T
New SwtControl.14G317__2679982 SwitchedObj=LINE.14G317__2679982 SwitchedTerm=2 Action=Closed Lock=no
New Line.U602BH__2692833 Bus1=26999156 Bus2=1139987 Switch=T
New SwtControl.U602BH__2692833 SwitchedObj=LINE.U602BH__2692833 SwitchedTerm=2 Action=Closed Lock=no
New Line.U600BH__2692822 Bus1=26999145 Bus2=1140076 Switch=T
New SwtControl.U600BH__2692822 SwitchedObj=LINE.U600BH__2692822 SwitchedTerm=2 Action=Closed Lock=no
New Line.14L465__2700819 Bus1=103045212 Bus2=26887559 Switch=T
New SwtControl.14L465__2700819 SwitchedObj=LINE.14L465__2700819 SwitchedTerm=2 Action=Closed Lock=no
New Line.U600BH__2692821 Bus1=1140076 Bus2=26999144 Switch=T
New SwtControl.U600BH__2692821 SwitchedObj=LINE.U600BH__2692821 SwitchedTerm=2 Action=Closed Lock=no
New Line.9AM84__2693537 Bus1=25631609 Bus2=26999860 Switch=T
New SwtControl.9AM84__2693537 SwitchedObj=LINE.9AM84__2693537 SwitchedTerm=2 Action=Closed Lock=no
New Line.102L18__2701168 Bus1=25750597 Bus2=27136922 Switch=T
New SwtControl.102L18__2701168 SwitchedObj=LINE.102L18__2701168 SwitchedTerm=2 Action=Closed Lock=no
New Line.9AM84__2693536 Bus1=26999859 Bus2=25631609 Switch=T
New SwtControl.9AM84__2693536 SwitchedObj=LINE.9AM84__2693536 SwitchedTerm=2 Action=Closed Lock=no
!New Line.9AM85__2693535 Bus1=25631608 Bus2=26999858 Switch=T
!New SwtControl.9AM85__2693535 SwitchedObj=LINE.9AM85__2693535 SwitchedTerm=2 Action=Open Lock=no
New Line.9AM89__2693539 Bus1=25631613 Bus2=26999862 Switch=T
New SwtControl.9AM89__2693539 SwitchedObj=LINE.9AM89__2693539 SwitchedTerm=2 Action=Closed Lock=no
New Line.102L18__2701169 Bus1=27136923 Bus2=25750597 Switch=T
New SwtControl.102L18__2701169 SwitchedObj=LINE.102L18__2701169 SwitchedTerm=2 Action=Closed Lock=no
New Line.9AM85__2693534 Bus1=26999857 Bus2=25631608 Switch=T
New SwtControl.9AM85__2693534 SwitchedObj=LINE.9AM85__2693534 SwitchedTerm=2 Action=Closed Lock=no
New Line.9AM89__2693538 Bus1=26999861 Bus2=25631613 Switch=T
New SwtControl.9AM89__2693538 SwitchedObj=LINE.9AM89__2693538 SwitchedTerm=2 Action=Closed Lock=no
New Line.U602BH__2692835 Bus1=1139987 Bus2=26999158 Switch=T
New SwtControl.U602BH__2692835 SwitchedObj=LINE.U602BH__2692835 SwitchedTerm=2 Action=Closed Lock=no
!New Line.9WF47__2700945 Bus1=27136699 Bus2=25876080 Switch=T
!New SwtControl.9WF47__2700945 SwitchedObj=LINE.9WF47__2700945 SwitchedTerm=2 Action=Open Lock=no
New Line.U602BH__2692834 Bus1=1139987 Bus2=26999157 Switch=T
New SwtControl.U602BH__2692834 SwitchedObj=LINE.U602BH__2692834 SwitchedTerm=2 Action=Closed Lock=no
New Line.9WF47__2700944 Bus1=27136698 Bus2=25876080 Switch=T
New SwtControl.9WF47__2700944 SwitchedObj=LINE.9WF47__2700944 SwitchedTerm=2 Action=Closed Lock=no
New Line.9WF47__2700946 Bus1=25876080 Bus2=27136700 Switch=T
New SwtControl.9WF47__2700946 SwitchedObj=LINE.9WF47__2700946 SwitchedTerm=2 Action=Closed Lock=no
New Line.14L810__2700860 Bus1=103048713 Bus2=103048712 Switch=T
New SwtControl.14L810__2700860 SwitchedObj=LINE.14L810__2700860 SwitchedTerm=2 Action=Closed Lock=no
New Line.C1F95__2700899 Bus1=27136653 Bus2=25734580 Switch=T
New SwtControl.C1F95__2700899 SwitchedObj=LINE.C1F95__2700899 SwitchedTerm=2 Action=Closed Lock=no
New Line.14NJ19__103098846 Bus1=103041526 Bus2=103041531 Switch=T
New SwtControl.14NJ19__103098846 SwitchedObj=LINE.14NJ19__103098846 SwitchedTerm=2 Action=Closed Lock=no
New Line.14Q054__103041306 Bus1=103016829 Bus2=103016827 Switch=T
New SwtControl.14Q054__103041306 SwitchedObj=LINE.14Q054__103041306 SwitchedTerm=2 Action=Closed Lock=no
New Line.14MD35__103098783 Bus1=103048715 Bus2=T4795B23_10000005 Switch=T
New SwtControl.14MD35__103098783 SwitchedObj=LINE.14MD35__103098783 SwitchedTerm=2 Action=Closed Lock=no
New Line.14Q054__103041305 Bus1=103016827 Bus2=103016838 Switch=T
New SwtControl.14Q054__103041305 SwitchedObj=LINE.14Q054__103041305 SwitchedTerm=2 Action=Closed Lock=no
New Line.14L466__2700821 Bus1=103125256 Bus2=26887560 Switch=T
New SwtControl.14L466__2700821 SwitchedObj=LINE.14L466__2700821 SwitchedTerm=2 Action=Closed Lock=no
New Line.14L466__2700822 Bus1=26887560 Bus2=27136576 Switch=T
New SwtControl.14L466__2700822 SwitchedObj=LINE.14L466__2700822 SwitchedTerm=2 Action=Closed Lock=no
New Line.186Q95__104672520 Bus1=103527273 Bus2=103527272 Switch=T
New SwtControl.186Q95__104672520 SwitchedObj=LINE.186Q95__104672520 SwitchedTerm=2 Action=Closed Lock=no
!New Line.8DW53__103222930 Bus1=103079712 Bus2=103079707 Switch=T
!New SwtControl.8DW53__103222930 SwitchedObj=LINE.8DW53__103222930 SwitchedTerm=2 Action=Open Lock=no
New Line.17MN19__104282580 Bus1=103383279 Bus2=103383280 Switch=T
New SwtControl.17MN19__104282580 SwitchedObj=LINE.17MN19__104282580 SwitchedTerm=2 Action=Closed Lock=no
New Line.7TX20__2701182 Bus1=27136936 Bus2=25360255 Switch=T
New SwtControl.7TX20__2701182 SwitchedObj=LINE.7TX20__2701182 SwitchedTerm=2 Action=Closed Lock=no
New Line.11E480__103404104 Bus1=26128170 Bus2=103125594 Switch=T
New SwtControl.11E480__103404104 SwitchedObj=LINE.11E480__103404104 SwitchedTerm=2 Action=Closed Lock=no
New Line.7TX20__2701181 Bus1=25360255 Bus2=27136935 Switch=T
New SwtControl.7TX20__2701181 SwitchedObj=LINE.7TX20__2701181 SwitchedTerm=2 Action=Closed Lock=no
New Line.9WA88__2700964 Bus1=25873704 Bus2=27136718 Switch=T
New SwtControl.9WA88__2700964 SwitchedObj=LINE.9WA88__2700964 SwitchedTerm=2 Action=Closed Lock=no
New Line.G250K__2692955 Bus1=26999278 Bus2=25734637 Switch=T
New SwtControl.G250K__2692955 SwitchedObj=LINE.G250K__2692955 SwitchedTerm=2 Action=Closed Lock=no
New Line.G250K__2692956 Bus1=25734637 Bus2=26999279 Switch=T
New SwtControl.G250K__2692956 SwitchedObj=LINE.G250K__2692956 SwitchedTerm=2 Action=Closed Lock=no
New Line.U588BH__2693010 Bus1=1140108 Bus2=26999333 Switch=T
New SwtControl.U588BH__2693010 SwitchedObj=LINE.U588BH__2693010 SwitchedTerm=2 Action=Closed Lock=no
New Line.9WA88__2700963 Bus1=27136717 Bus2=25873704 Switch=T
New SwtControl.9WA88__2700963 SwitchedObj=LINE.9WA88__2700963 SwitchedTerm=2 Action=Closed Lock=no
New Line.183Y12__104695296 Bus1=103536834 Bus2=103536786 Switch=T
New SwtControl.183Y12__104695296 SwitchedObj=LINE.183Y12__104695296 SwitchedTerm=2 Action=Closed Lock=no
New Line.183Y12__104695295 Bus1=103536786 Bus2=103536832 Switch=T
New SwtControl.183Y12__104695295 SwitchedObj=LINE.183Y12__104695295 SwitchedTerm=2 Action=Closed Lock=no
New Line.PME14__2692868 Bus1=26999191 Bus2=25024992 Switch=T
New SwtControl.PME14__2692868 SwitchedObj=LINE.PME14__2692868 SwitchedTerm=2 Action=Closed Lock=no
New Line.183Y95__104696227 Bus1=103537123 Bus2=103537191 Switch=T
New SwtControl.183Y95__104696227 SwitchedObj=LINE.183Y95__104696227 SwitchedTerm=2 Action=Closed Lock=no
New Line.PME14__2692869 Bus1=25024992 Bus2=26999192 Switch=T
New SwtControl.PME14__2692869 SwitchedObj=LINE.PME14__2692869 SwitchedTerm=2 Action=Closed Lock=no
New Line.5LT91__2692884 Bus1=26999207 Bus2=25024996 Switch=T
New SwtControl.5LT91__2692884 SwitchedObj=LINE.5LT91__2692884 SwitchedTerm=2 Action=Closed Lock=no
New Line.5LT91__2692885 Bus1=25024996 Bus2=26999208 Switch=T
New SwtControl.5LT91__2692885 SwitchedObj=LINE.5LT91__2692885 SwitchedTerm=2 Action=Closed Lock=no
New Line.13F675__2701378 Bus1=103121261 Bus2=103121256 Switch=T
New SwtControl.13F675__2701378 SwitchedObj=LINE.13F675__2701378 SwitchedTerm=2 Action=Closed Lock=no
New Line.15TN74__103913538 Bus1=103265086 Bus2=103265159 Switch=T
New SwtControl.15TN74__103913538 SwitchedObj=LINE.15TN74__103913538 SwitchedTerm=2 Action=Closed Lock=no
New Line.183Y95__104696228 Bus1=103537194 Bus2=103537123 Switch=T
New SwtControl.183Y95__104696228 SwitchedObj=LINE.183Y95__104696228 SwitchedTerm=2 Action=Closed Lock=no
New Line.15TN74__103913539 Bus1=103265162 Bus2=103265086 Switch=T
New SwtControl.15TN74__103913539 SwitchedObj=LINE.15TN74__103913539 SwitchedTerm=2 Action=Closed Lock=no
New Line.A543BH__2692847 Bus1=26999170 Bus2=1139897 Switch=T
New SwtControl.A543BH__2692847 SwitchedObj=LINE.A543BH__2692847 SwitchedTerm=2 Action=Closed Lock=no
New Line.84Q24__2693040 Bus1=26999363 Bus2=25734529 Switch=T
New SwtControl.84Q24__2693040 SwitchedObj=LINE.84Q24__2693040 SwitchedTerm=2 Action=Closed Lock=no
New Line.A543BH__2692846 Bus1=1139897 Bus2=26999169 Switch=T
New SwtControl.A543BH__2692846 SwitchedObj=LINE.A543BH__2692846 SwitchedTerm=2 Action=Closed Lock=no
New Line.D111K__2700919 Bus1=27136673 Bus2=25734605 Switch=T
New SwtControl.D111K__2700919 SwitchedObj=LINE.D111K__2700919 SwitchedTerm=2 Action=Closed Lock=no
New Line.U612BH__2692830 Bus1=26999153 Bus2=1140051 Switch=T
New SwtControl.U612BH__2692830 SwitchedObj=LINE.U612BH__2692830 SwitchedTerm=2 Action=Closed Lock=no
New Line.13F675__2701377 Bus1=103121242 Bus2=103121228 Switch=T
New SwtControl.13F675__2701377 SwitchedObj=LINE.13F675__2701377 SwitchedTerm=2 Action=Closed Lock=no
New Line.14LH92__2701371 Bus1=27137125 Bus2=26907384 Switch=T
New SwtControl.14LH92__2701371 SwitchedObj=LINE.14LH92__2701371 SwitchedTerm=2 Action=Closed Lock=no
New Line.17KH66__104218264 Bus1=103359051 Bus2=103359052 Switch=T
New SwtControl.17KH66__104218264 SwitchedObj=LINE.17KH66__104218264 SwitchedTerm=2 Action=Closed Lock=no
New Line.17KH66__104218265 Bus1=103359052 Bus2=103359053 Switch=T
New SwtControl.17KH66__104218265 SwitchedObj=LINE.17KH66__104218265 SwitchedTerm=2 Action=Closed Lock=no
New Line.14LH92__2701372 Bus1=26907384 Bus2=27137126 Switch=T
New SwtControl.14LH92__2701372 SwitchedObj=LINE.14LH92__2701372 SwitchedTerm=2 Action=Closed Lock=no
New Line.14Q053__103041285 Bus1=103025150 Bus2=103016818 Switch=T
New SwtControl.14Q053__103041285 SwitchedObj=LINE.14Q053__103041285 SwitchedTerm=2 Action=Closed Lock=no
New Line.13PX76__2693873 Bus1=26709810 Bus2=27000196 Switch=T
New SwtControl.13PX76__2693873 SwitchedObj=LINE.13PX76__2693873 SwitchedTerm=2 Action=Closed Lock=no
New Line.14Q053__103041284 Bus1=103016818 Bus2=103016828 Switch=T
New SwtControl.14Q053__103041284 SwitchedObj=LINE.14Q053__103041284 SwitchedTerm=2 Action=Closed Lock=no
New Line.17MN22__104282577 Bus1=103383281 Bus2=103383282 Switch=T
New SwtControl.17MN22__104282577 SwitchedObj=LINE.17MN22__104282577 SwitchedTerm=2 Action=Closed Lock=no
New Line.17MN22__104282578 Bus1=103383282 Bus2=103383283 Switch=T
New SwtControl.17MN22__104282578 SwitchedObj=LINE.17MN22__104282578 SwitchedTerm=2 Action=Closed Lock=no
New Line.13PX76__2693874 Bus1=27000197 Bus2=26709810 Switch=T
New SwtControl.13PX76__2693874 SwitchedObj=LINE.13PX76__2693874 SwitchedTerm=2 Action=Closed Lock=no
New Line.18GE31__105436272 Bus1=103631265 Bus2=103631268 Switch=T
New SwtControl.18GE31__105436272 SwitchedObj=LINE.18GE31__105436272 SwitchedTerm=2 Action=Closed Lock=no
New Line.8EK62__2693050 Bus1=25586104 Bus2=26999373 Switch=T
New SwtControl.8EK62__2693050 SwitchedObj=LINE.8EK62__2693050 SwitchedTerm=2 Action=Closed Lock=no
New Line.133Y84__2701192 Bus1=27136946 Bus2=26567440 Switch=T
New SwtControl.133Y84__2701192 SwitchedObj=LINE.133Y84__2701192 SwitchedTerm=2 Action=Closed Lock=no
New Line.18GE31__105436271 Bus1=103631269 Bus2=103631265 Switch=T
New SwtControl.18GE31__105436271 SwitchedObj=LINE.18GE31__105436271 SwitchedTerm=2 Action=Closed Lock=no
New Line.8EK62__2693051 Bus1=25586104 Bus2=26999374 Switch=T
New SwtControl.8EK62__2693051 SwitchedObj=LINE.8EK62__2693051 SwitchedTerm=2 Action=Closed Lock=no
New Line.8EK63__2693052 Bus1=25833129 Bus2=26999375 Switch=T
New SwtControl.8EK63__2693052 SwitchedObj=LINE.8EK63__2693052 SwitchedTerm=2 Action=Closed Lock=no
New Line.8EK63__2693053 Bus1=26999376 Bus2=25833129 Switch=T
New SwtControl.8EK63__2693053 SwitchedObj=LINE.8EK63__2693053 SwitchedTerm=2 Action=Closed Lock=no
New Line.133Y84__2701191 Bus1=26567440 Bus2=27136945 Switch=T
New SwtControl.133Y84__2701191 SwitchedObj=LINE.133Y84__2701191 SwitchedTerm=2 Action=Closed Lock=no
New Line.14LJ00__2701349 Bus1=26896049 Bus2=27137103 Switch=T
New SwtControl.14LJ00__2701349 SwitchedObj=LINE.14LJ00__2701349 SwitchedTerm=2 Action=Closed Lock=no
New Line.14LJ00__2701348 Bus1=27137102 Bus2=26896049 Switch=T
New SwtControl.14LJ00__2701348 SwitchedObj=LINE.14LJ00__2701348 SwitchedTerm=2 Action=Closed Lock=no
New Line.9W757__2701504 Bus1=25858575 Bus2=27137258 Switch=T
New SwtControl.9W757__2701504 SwitchedObj=LINE.9W757__2701504 SwitchedTerm=2 Action=Closed Lock=no
New Line.9W757__2701505 Bus1=27137259 Bus2=25858575 Switch=T
New SwtControl.9W757__2701505 SwitchedObj=LINE.9W757__2701505 SwitchedTerm=2 Action=Closed Lock=no
New Line.14FX05__2700739 Bus1=26859626 Bus2=27136493 Switch=T
New SwtControl.14FX05__2700739 SwitchedObj=LINE.14FX05__2700739 SwitchedTerm=2 Action=Closed Lock=no
New Line.14LJ03__2701353 Bus1=26896052 Bus2=27137107 Switch=T
New SwtControl.14LJ03__2701353 SwitchedObj=LINE.14LJ03__2701353 SwitchedTerm=2 Action=Closed Lock=no
New Line.187W45__104783620 Bus1=103571153 Bus2=103571156 Switch=T
New SwtControl.187W45__104783620 SwitchedObj=LINE.187W45__104783620 SwitchedTerm=2 Action=Closed Lock=no
New Line.14LJ03__2701352 Bus1=27137106 Bus2=26896052 Switch=T
New SwtControl.14LJ03__2701352 SwitchedObj=LINE.14LJ03__2701352 SwitchedTerm=2 Action=Closed Lock=no
New Line.8EK65__2693058 Bus1=25586117 Bus2=26999381 Switch=T
New SwtControl.8EK65__2693058 SwitchedObj=LINE.8EK65__2693058 SwitchedTerm=2 Action=Closed Lock=no
New Line.17MN16__104282583 Bus1=103383285 Bus2=103383286 Switch=T
New SwtControl.17MN16__104282583 SwitchedObj=LINE.17MN16__104282583 SwitchedTerm=2 Action=Closed Lock=no
New Line.8EK65__2693059 Bus1=26999382 Bus2=25586117 Switch=T
New SwtControl.8EK65__2693059 SwitchedObj=LINE.8EK65__2693059 SwitchedTerm=2 Action=Closed Lock=no
!New Line.9W756__2701506 Bus1=25858574 Bus2=27137260 Switch=T
!New SwtControl.9W756__2701506 SwitchedObj=LINE.9W756__2701506 SwitchedTerm=2 Action=Open Lock=no
New Line.17MN16__104282582 Bus1=103383286 Bus2=103383287 Switch=T
New SwtControl.17MN16__104282582 SwitchedObj=LINE.17MN16__104282582 SwitchedTerm=2 Action=Closed Lock=no
New Line.9W756__2701507 Bus1=27137261 Bus2=25858574 Switch=T
New SwtControl.9W756__2701507 SwitchedObj=LINE.9W756__2701507 SwitchedTerm=2 Action=Closed Lock=no
!New Line.G261K__2693037 Bus1=1105100 Bus2=26999360 Switch=T
!New SwtControl.G261K__2693037 SwitchedObj=LINE.G261K__2693037 SwitchedTerm=2 Action=Open Lock=no
!New Line.17BT58__104029638 Bus1=103559715 Bus2=103294835 Switch=T
!New SwtControl.17BT58__104029638 SwitchedObj=LINE.17BT58__104029638 SwitchedTerm=2 Action=Open Lock=no
New Line.8DT83__2693389 Bus1=25734569 Bus2=26999712 Switch=T
New SwtControl.8DT83__2693389 SwitchedObj=LINE.8DT83__2693389 SwitchedTerm=2 Action=Closed Lock=no
New Line.17BT58__104029639 Bus1=103294957 Bus2=103294837 Switch=T
New SwtControl.17BT58__104029639 SwitchedObj=LINE.17BT58__104029639 SwitchedTerm=2 Action=Closed Lock=no
New Line.7NX02__2692942 Bus1=25734562 Bus2=26999265 Switch=T
New SwtControl.7NX02__2692942 SwitchedObj=LINE.7NX02__2692942 SwitchedTerm=2 Action=Closed Lock=no
New Line.8DT83__2693388 Bus1=26999711 Bus2=25734569 Switch=T
New SwtControl.8DT83__2693388 SwitchedObj=LINE.8DT83__2693388 SwitchedTerm=2 Action=Closed Lock=no
New Line.7NX02__2692943 Bus1=26999266 Bus2=25734562 Switch=T
New SwtControl.7NX02__2692943 SwitchedObj=LINE.7NX02__2692943 SwitchedTerm=2 Action=Closed Lock=no
New Line.13PX89__2693860 Bus1=27000183 Bus2=26709745 Switch=T
New SwtControl.13PX89__2693860 SwitchedObj=LINE.13PX89__2693860 SwitchedTerm=2 Action=Closed Lock=no
!New Line.6MG63__2678615 Bus1=26803517 Bus2=26803518 Switch=T
!New SwtControl.6MG63__2678615 SwitchedObj=LINE.6MG63__2678615 SwitchedTerm=2 Action=Open Lock=no
New Line.13PX88__2693857 Bus1=27000180 Bus2=26709740 Switch=T
New SwtControl.13PX88__2693857 SwitchedObj=LINE.13PX88__2693857 SwitchedTerm=2 Action=Closed Lock=no
New Line.G261K__2693038 Bus1=26999361 Bus2=1105100 Switch=T
New SwtControl.G261K__2693038 SwitchedObj=LINE.G261K__2693038 SwitchedTerm=2 Action=Closed Lock=no
New Line.13PX94__2693852 Bus1=26709797 Bus2=27000175 Switch=T
New SwtControl.13PX94__2693852 SwitchedObj=LINE.13PX94__2693852 SwitchedTerm=2 Action=Closed Lock=no
New Line.D102K__2701015 Bus1=25734598 Bus2=27136769 Switch=T
New SwtControl.D102K__2701015 SwitchedObj=LINE.D102K__2701015 SwitchedTerm=2 Action=Closed Lock=no
New Line.13PX94__2693851 Bus1=27000174 Bus2=26709797 Switch=T
New SwtControl.13PX94__2693851 SwitchedObj=LINE.13PX94__2693851 SwitchedTerm=2 Action=Closed Lock=no
New Line.8R721__2685192 Bus1=26991510 Bus2=25490385 Switch=T
New SwtControl.8R721__2685192 SwitchedObj=LINE.8R721__2685192 SwitchedTerm=2 Action=Closed Lock=no
New Line.D102K__2701014 Bus1=27136768 Bus2=25734598 Switch=T
New SwtControl.D102K__2701014 SwitchedObj=LINE.D102K__2701014 SwitchedTerm=2 Action=Closed Lock=no
New Line.9W754__2701508 Bus1=103014538 Bus2=25858578 Switch=T
New SwtControl.9W754__2701508 SwitchedObj=LINE.9W754__2701508 SwitchedTerm=2 Action=Closed Lock=no
New Line.10EH22__2701092 Bus1=27136846 Bus2=25917435 Switch=T
New SwtControl.10EH22__2701092 SwitchedObj=LINE.10EH22__2701092 SwitchedTerm=2 Action=Closed Lock=no
New Line.13PX88__2693858 Bus1=26709740 Bus2=27000181 Switch=T
New SwtControl.13PX88__2693858 SwitchedObj=LINE.13PX88__2693858 SwitchedTerm=2 Action=Closed Lock=no
New Line.11E483__2701113 Bus1=26128186 Bus2=27136867 Switch=T
New SwtControl.11E483__2701113 SwitchedObj=LINE.11E483__2701113 SwitchedTerm=2 Action=Closed Lock=no
New Line.8DT86__2692948 Bus1=25734566 Bus2=26999271 Switch=T
New SwtControl.8DT86__2692948 SwitchedObj=LINE.8DT86__2692948 SwitchedTerm=2 Action=Closed Lock=no
New Line.8DT86__2692949 Bus1=25734566 Bus2=26999272 Switch=T
New SwtControl.8DT86__2692949 SwitchedObj=LINE.8DT86__2692949 SwitchedTerm=2 Action=Closed Lock=no
New Line.12129__2693815 Bus1=27000138 Bus2=1105038 Switch=T
New SwtControl.12129__2693815 SwitchedObj=LINE.12129__2693815 SwitchedTerm=2 Action=Closed Lock=no
New Line.126697__2693607 Bus1=26356916 Bus2=26999930 Switch=T
New SwtControl.126697__2693607 SwitchedObj=LINE.126697__2693607 SwitchedTerm=2 Action=Closed Lock=no
New Line.18FA93__105436421 Bus1=103631345 Bus2=103631336 Switch=T
New SwtControl.18FA93__105436421 SwitchedObj=LINE.18FA93__105436421 SwitchedTerm=2 Action=Closed Lock=no
New Line.D106K__2700910 Bus1=25734600 Bus2=27136664 Switch=T
New SwtControl.D106K__2700910 SwitchedObj=LINE.D106K__2700910 SwitchedTerm=2 Action=Closed Lock=no
New Line.11E483__2701114 Bus1=27136868 Bus2=26128186 Switch=T
New SwtControl.11E483__2701114 SwitchedObj=LINE.11E483__2701114 SwitchedTerm=2 Action=Closed Lock=no
New Line.126697__2693608 Bus1=26999931 Bus2=26356916 Switch=T
New SwtControl.126697__2693608 SwitchedObj=LINE.126697__2693608 SwitchedTerm=2 Action=Closed Lock=no
New Line.8DT84__2693063 Bus1=26999386 Bus2=25734568 Switch=T
New SwtControl.8DT84__2693063 SwitchedObj=LINE.8DT84__2693063 SwitchedTerm=2 Action=Closed Lock=no
New Line.8DT84__2693062 Bus1=25734568 Bus2=26999385 Switch=T
New SwtControl.8DT84__2693062 SwitchedObj=LINE.8DT84__2693062 SwitchedTerm=2 Action=Closed Lock=no
New Line.11E480__2701123 Bus1=27136877 Bus2=26128170 Switch=T
New SwtControl.11E480__2701123 SwitchedObj=LINE.11E480__2701123 SwitchedTerm=2 Action=Closed Lock=no
New Line.U609BH__2692827 Bus1=26999150 Bus2=1139872 Switch=T
New SwtControl.U609BH__2692827 SwitchedObj=LINE.U609BH__2692827 SwitchedTerm=2 Action=Closed Lock=no
New Line.18NP34__106231437 Bus1=103666861 Bus2=103666848 Switch=T
New SwtControl.18NP34__106231437 SwitchedObj=LINE.18NP34__106231437 SwitchedTerm=2 Action=Closed Lock=no
New Line.G253K__2700930 Bus1=27136684 Bus2=25734640 Switch=T
New SwtControl.G253K__2700930 SwitchedObj=LINE.G253K__2700930 SwitchedTerm=2 Action=Closed Lock=no
New Line.G253K__2700931 Bus1=25734640 Bus2=27136685 Switch=T
New SwtControl.G253K__2700931 SwitchedObj=LINE.G253K__2700931 SwitchedTerm=2 Action=Closed Lock=no
New Line.13PX93__2693849 Bus1=27000172 Bus2=26709791 Switch=T
New SwtControl.13PX93__2693849 SwitchedObj=LINE.13PX93__2693849 SwitchedTerm=2 Action=Closed Lock=no
New Line.17KH65__104218260 Bus1=103359056 Bus2=103359057 Switch=T
New SwtControl.17KH65__104218260 SwitchedObj=LINE.17KH65__104218260 SwitchedTerm=2 Action=Closed Lock=no
New Line.18NP34__106231438 Bus1=103666848 Bus2=103666859 Switch=T
New SwtControl.18NP34__106231438 SwitchedObj=LINE.18NP34__106231438 SwitchedTerm=2 Action=Open Lock=no
New Line.U609BH__2692828 Bus1=1139872 Bus2=26999151 Switch=T
New SwtControl.U609BH__2692828 SwitchedObj=LINE.U609BH__2692828 SwitchedTerm=2 Action=Closed Lock=no
New Line.17KH65__104218261 Bus1=103359055 Bus2=103359056 Switch=T
New SwtControl.17KH65__104218261 SwitchedObj=LINE.17KH65__104218261 SwitchedTerm=2 Action=Closed Lock=no
New Line.12AK60__2701055 Bus1=27136809 Bus2=26387839 Switch=T
New SwtControl.12AK60__2701055 SwitchedObj=LINE.12AK60__2701055 SwitchedTerm=2 Action=Closed Lock=no
New Line.12AK60__2701054 Bus1=26387839 Bus2=27136808 Switch=T
New SwtControl.12AK60__2701054 SwitchedObj=LINE.12AK60__2701054 SwitchedTerm=2 Action=Closed Lock=no
New Line.14FX08__2700746 Bus1=103322576 Bus2=26859622 Switch=T
New SwtControl.14FX08__2700746 SwitchedObj=LINE.14FX08__2700746 SwitchedTerm=2 Action=Closed Lock=no
New Line.9WA93__2701524 Bus1=27137278 Bus2=25873713 Switch=T
New SwtControl.9WA93__2701524 SwitchedObj=LINE.9WA93__2701524 SwitchedTerm=2 Action=Closed Lock=no
New Line.9WA93__2701523 Bus1=25873713 Bus2=27137277 Switch=T
New SwtControl.9WA93__2701523 SwitchedObj=LINE.9WA93__2701523 SwitchedTerm=2 Action=Closed Lock=no
New Line.D860K__2693066 Bus1=1105214 Bus2=26999389 Switch=T
New SwtControl.D860K__2693066 SwitchedObj=LINE.D860K__2693066 SwitchedTerm=2 Action=Closed Lock=no
New Line.14L346__2700816 Bus1=27136570 Bus2=26887528 Switch=T
New SwtControl.14L346__2700816 SwitchedObj=LINE.14L346__2700816 SwitchedTerm=2 Action=Closed Lock=no
New Line.D860K__2693067 Bus1=26999390 Bus2=1105214 Switch=T
New SwtControl.D860K__2693067 SwitchedObj=LINE.D860K__2693067 SwitchedTerm=2 Action=Closed Lock=no
New Line.14L342__2700818 Bus1=26887523 Bus2=27136572 Switch=T
New SwtControl.14L342__2700818 SwitchedObj=LINE.14L342__2700818 SwitchedTerm=2 Action=Closed Lock=no
New Line.D862K__2692910 Bus1=1105379 Bus2=26999233 Switch=T
New SwtControl.D862K__2692910 SwitchedObj=LINE.D862K__2692910 SwitchedTerm=2 Action=Closed Lock=no
New Line.17DH83__104079498 Bus1=103307204 Bus2=103307205 Switch=T
New SwtControl.17DH83__104079498 SwitchedObj=LINE.17DH83__104079498 SwitchedTerm=2 Action=Closed Lock=no
New Line.183Y93__104696246 Bus1=103537127 Bus2=103537208 Switch=T
New SwtControl.183Y93__104696246 SwitchedObj=LINE.183Y93__104696246 SwitchedTerm=2 Action=Closed Lock=no
New Line.14L342__2700817 Bus1=27136571 Bus2=26887523 Switch=T
New SwtControl.14L342__2700817 SwitchedObj=LINE.14L342__2700817 SwitchedTerm=2 Action=Closed Lock=no
New Line.183Y93__104696245 Bus1=103543459 Bus2=103537127 Switch=T
New SwtControl.183Y93__104696245 SwitchedObj=LINE.183Y93__104696245 SwitchedTerm=2 Action=Closed Lock=no
New Line.105P72__2680188 Bus1=26835313 Bus2=25856674 Switch=T
New SwtControl.105P72__2680188 SwitchedObj=LINE.105P72__2680188 SwitchedTerm=2 Action=Closed Lock=no
New Line.G251K__2692957 Bus1=25734638 Bus2=26999280 Switch=T
New SwtControl.G251K__2692957 SwitchedObj=LINE.G251K__2692957 SwitchedTerm=2 Action=Closed Lock=no
New Line.8DW53__103222931 Bus1=103079711 Bus2=103079706 Switch=T
New SwtControl.8DW53__103222931 SwitchedObj=LINE.8DW53__103222931 SwitchedTerm=2 Action=Closed Lock=no
New Line.G251K__2692958 Bus1=26999281 Bus2=25734638 Switch=T
New SwtControl.G251K__2692958 SwitchedObj=LINE.G251K__2692958 SwitchedTerm=2 Action=Closed Lock=no
New Line.132351__2693142 Bus1=26555727 Bus2=26999465 Switch=T
New SwtControl.132351__2693142 SwitchedObj=LINE.132351__2693142 SwitchedTerm=2 Action=Closed Lock=no
New Line.7NW66__2692937 Bus1=26999260 Bus2=25734559 Switch=T
New SwtControl.7NW66__2692937 SwitchedObj=LINE.7NW66__2692937 SwitchedTerm=2 Action=Closed Lock=no