New loadshape.LS_Solar npts=1440 sinterval=60 mult=(0.000191 0.000190 0.000189 0.000189 0.000188 0.000187 0.000186 0.000185 0.000184 0.000184 0.000183 0.000182 0.000181 0.000180 0.000179 0.000178 0.000178 0.000177 0.000176 0.000175 0.000174 0.000173 0.000173 0.000172 0.000171 0.000170 0.000169 0.000168 0.000167 0.000167 0.000166 0.000165 0.000164 0.000163 0.000162 0.000162 0.000161 0.000160 0.000159 0.000158 0.000157 0.000156 0.000156 0.000155 0.000154 0.000153 0.000152 0.000151 0.000151 0.000150 0.000149 0.000148 0.000147 0.000146 0.000145 0.000145 0.000144 0.000143 0.000142 0.000141 0.000140 0.000140 0.000139 0.000138 0.000137 0.000136 0.000135 0.000134 0.000134 0.000133 0.000132 0.000131 0.000130 0.000129 0.000129 0.000128 0.000127 0.000126 0.000125 0.000124 0.000123 0.000123 0.000122 0.000121 0.000120 0.000119 0.000118 0.000118 0.000117 0.000116 0.000115 0.000114 0.000113 0.000112 0.000112 0.000111 0.000110 0.000109 0.000108 0.000107 0.000107 0.000106 0.000105 0.000104 0.000103 0.000102 0.000101 0.000101 0.000000 0.000000 0.000000 0.000000 0.000000 0.000000 0.000000 0.000000 0.000000 0.000000 0.000000 0.000000 0.000000 0.000000 0.000000 0.000000 0.000000 0.000000 0.000000 0.000000 0.000000 0.000000 0.000000 0.000000 0.000000 0.000000 0.000000 0.000000 0.000000 0.000000 0.000000 0.000000 0.000000 0.000000 0.000000 0.000000 0.000000 0.000000 0.000000 0.000000 0.000000 0.000000 0.000000 0.000000 0.000000 0.000000 0.000000 0.000000 0.000000 0.000000 0.000000 0.000000 0.000000 0.000000 0.000000 0.000000 0.000000 0.000000 0.000000 0.000000 0.000000 0.000000 0.000000 0.000000 0.000000 0.000000 0.000000 0.000000 0.000000 0.000000 0.000000 0.000000 0.000000 0.000000 0.000000 0.000000 0.000000 0.000000 0.000000 0.000000 0.000000 0.000000 0.000000 0.000000 0.000000 0.000000 0.000000 0.000000 0.000000 0.000000 0.000000 0.000000 0.000000 0.000000 0.000000 0.000000 0.000000 0.000000 0.000000 0.000000 0.000000 0.000000 0.000000 0.000000 0.000000 0.000000 0.000000 0.000000 0.000000 0.000000 0.000000 0.000000 0.000000 0.000000 0.000000 0.000000 0.000000 0.000000 0.000000 0.000000 0.000000 0.000000 0.000000 0.000000 0.000000 0.000000 0.000000 0.000000 0.000000 0.000000 0.000000 0.000000 0.000000 0.000000 0.000000 0.000000 0.000000 0.000000 0.000000 0.000000 0.000000 0.000000 0.000000 0.000000 0.000000 0.000000 0.000000 0.000000 0.000000 0.000000 0.000000 0.000000 0.000100 0.000102 0.000104 0.000105 0.000107 0.000109 0.000110 0.000112 0.000114 0.000115 0.000117 0.000119 0.000121 0.000122 0.000124 0.000126 0.000127 0.000129 0.000131 0.000132 0.000134 0.000136 0.000138 0.000139 0.000141 0.000143 0.000144 0.000146 0.000148 0.000149 0.000151 0.000153 0.000155 0.000156 0.000158 0.000160 0.000161 0.000163 0.000165 0.000166 0.000168 0.000170 0.000172 0.000173 0.000175 0.000177 0.000178 0.000180 0.000182 0.000183 0.000185 0.000187 0.000189 0.000190 0.000192 0.000194 0.000195 0.000197 0.000199 0.000200 0.000202 0.000204 0.000206 0.000207 0.000209 0.000211 0.000212 0.000214 0.000216 0.000217 0.000219 0.000221 0.000223 0.000224 0.000226 0.000228 0.000229 0.000231 0.000233 0.000234 0.000236 0.000238 0.000239 0.000241 0.000243 0.000245 0.000246 0.000248 0.000250 0.000251 0.000253 0.000255 0.000256 0.000258 0.000260 0.000262 0.000263 0.000265 0.000267 0.000268 0.000270 0.000272 0.000273 0.000275 0.000277 0.000279 0.000280 0.000282 0.000284 0.000285 0.000287 0.000289 0.000290 0.000292 0.000294 0.000296 0.000297 0.000299 0.000301 0.000302 0.000304 0.000306 0.000307 0.000309 0.000311 0.000313 0.000314 0.000316 0.000318 0.000319 0.000321 0.000323 0.000324 0.000326 0.000328 0.000330 0.000331 0.000333 0.000335 0.000336 0.000338 0.000340 0.000341 0.000343 0.000345 0.000346 0.000748 0.001950 0.002192 0.002433 0.003355 0.003357 0.004900 0.005184 0.005468 0.005752 0.006036 0.006320 0.006604 0.006888 0.007172 0.008674 0.009475 0.009757 0.010039 0.012580 0.012582 0.015424 0.015906 0.015907 0.015229 0.013391 0.013650 0.013910 0.015329 0.015509 0.017199 0.020000 0.020067 0.021733 0.022316 0.023831 0.025867 0.026372 0.027767 0.027650 0.027533 0.026825 0.026875 0.026925 0.027575 0.029600 0.030400 0.031600 0.027000 0.027400 0.028600 0.032200 0.032200 0.038000 0.044400 0.044400 0.051400 0.059600 0.059600 0.068800 0.080400 0.080400 0.095000 0.117000 0.117000 0.177000 0.223400 0.223400 0.175600 0.142200 0.142200 0.169600 0.169600 0.176200 0.129400 0.128920 0.127040 0.112600 0.112600 0.106000 0.101800 0.101560 0.101320 0.104800 0.104800 0.111275 0.113225 0.113215 0.113205 0.114450 0.115590 0.116880 0.116067 0.115800 0.117470 0.118410 0.118390 0.117330 0.188400 0.188400 0.146000 0.172800 0.234400 0.316400 0.316400 0.362400 0.348600 0.348600 0.363400 0.381400 0.381400 0.400680 0.398440 0.398200 0.402200 0.408800 0.408800 0.430800 0.446800 0.446800 0.451400 0.444800 0.444800 0.459800 0.462600 0.462600 0.516800 0.508200 0.508200 0.491800 0.525600 0.525600 0.543600 0.553600 0.553600 0.581200 0.576800 0.576800 0.586000 0.586000 0.503400 0.469800 0.320400 0.320267 0.319133 0.318600 0.360200 0.330800 0.330800 0.406200 0.582000 0.582000 0.623800 0.566000 0.439000 0.393800 0.338200 0.338200 0.325800 0.389600 0.389600 0.429800 0.408800 0.408800 0.476200 0.515800 0.515800 0.469200 0.427600 0.427600 0.451800 0.412200 0.412200 0.358800 0.371200 0.371200 0.412600 0.412600 0.466300 0.429600 0.304800 0.304200 0.311000 0.434600 0.579800 0.636800 0.636800 0.682600 0.680600 0.680520 0.680440 0.676200 0.675960 0.674720 0.677800 0.677880 0.679560 0.686400 0.686400 0.695200 0.701800 0.701650 0.699700 0.699550 0.699400 0.702400 0.707800 0.707800 0.711167 0.711100 0.711033 0.716600 0.720800 0.721067 0.722333 0.722600 0.722867 0.726400 0.726400 0.735400 0.745000 0.745000 0.748200 0.751800 0.751800 0.756520 0.759160 0.759400 0.763400 0.768200 0.768200 0.771800 0.778000 0.778000 0.781800 0.785200 0.785440 0.789280 0.790600 0.790680 0.792560 0.793800 0.794200 0.798360 0.798280 0.798200 0.801000 0.801000 0.808920 0.813160 0.813400 0.818800 0.824000 0.824204 0.824407 0.824458 0.824355 0.824252 0.829800 0.829800 0.834680 0.836440 0.837000 0.838840 0.839120 0.838800 0.829000 0.845800 0.846360 0.846920 0.851800 0.852040 0.855080 0.850600 0.850120 0.849640 0.856200 0.856200 0.863280 0.866040 0.866200 0.872200 0.872200 0.865000 0.869200 0.869200 0.881800 0.885800 0.885800 0.881800 0.888800 0.888800 0.882000 0.886000 0.886000 0.894200 0.898800 0.898400 0.897200 0.880200 0.880200 0.895200 0.861000 0.861000 0.890400 0.848200 0.786400 0.863200 0.893000 0.893000 0.907800 0.869600 0.869600 0.907575 0.907525 0.907475 0.907425 0.851000 0.851000 0.907520 0.905760 0.905600 0.899800 0.899400 0.899000 0.907200 0.907200 0.852600 0.903000 0.903000 0.784400 0.749400 0.810800 0.771000 0.704400 0.850800 0.884600 0.897000 0.897000 0.907400 0.904000 0.904000 0.849600 0.878600 0.878840 0.879880 0.838800 0.712000 0.623600 0.692200 0.692200 0.762100 0.839000 0.776800 0.440800 0.424000 0.424000 0.417800 0.375000 0.374800 0.373200 0.563200 0.856000 0.909400 0.909250 0.909100 0.908950 0.908800 0.905400 0.847000 0.847000 0.815600 0.735600 0.735600 0.766400 0.816800 0.878000 0.764100 0.653200 0.777800 0.859400 0.907000 0.907126 0.907253 0.907379 0.907506 0.907082 0.907059 0.907435 0.906612 0.887400 0.887400 0.770800 0.514800 0.538600 0.335000 0.335000 0.288200 0.343600 0.343600 0.336400 0.423600 0.425000 0.646200 0.817600 0.878600 0.869000 0.864800 0.864800 0.872600 0.908800 0.908546 0.908292 0.908118 0.908024 0.907246 0.906585 0.906705 0.906826 0.906943 0.781500 0.595000 0.657867 0.782600 0.803800 0.717200 0.655400 0.522000 0.459800 0.464400 0.373000 0.373000 0.332800 0.328000 0.328000 0.323400 0.342200 0.342200 0.362000 0.485100 0.546600 0.677000 0.787400 0.726000 0.607600 0.536600 0.536600 0.482400 0.455600 0.455840 0.457880 0.475000 0.475000 0.490000 0.499000 0.562000 0.594400 0.683400 0.683400 0.578600 0.503200 0.627200 0.851800 0.851800 0.905600 0.855000 0.855000 0.901400 0.809400 0.684800 0.574800 0.579800 0.579800 0.599600 0.484800 0.546800 0.674600 0.731000 0.731000 0.738000 0.742000 0.742000 0.543600 0.494400 0.494400 0.486000 0.482400 0.482400 0.443520 0.444160 0.444800 0.440000 0.438600 0.438200 0.442800 0.450600 0.450600 0.471600 0.515400 0.515400 0.489800 0.498800 0.498800 0.490000 0.492600 0.492600 0.526200 0.526200 0.544400 0.538200 0.538200 0.525000 0.529600 0.529600 0.654800 0.818800 0.818800 0.820200 0.742400 0.574000 0.525400 0.480200 0.665400 0.694400 0.720600 0.783200 0.764800 0.523200 0.523200 0.728400 0.884200 0.884200 0.893600 0.827500 0.764000 0.852800 0.856400 0.856800 0.836000 0.836000 0.717200 0.653400 0.461400 0.426600 0.480600 0.541600 0.729000 0.830600 0.830600 0.814800 0.781400 0.781400 0.773200 0.787200 0.848000 0.862000 0.857600 0.732000 0.470000 0.345600 0.345600 0.323600 0.416800 0.479200 0.634600 0.794200 0.794200 0.832800 0.818200 0.757600 0.729200 0.644400 0.644400 0.673600 0.569400 0.569400 0.610400 0.545300 0.422067 0.352600 0.352600 0.295800 0.238600 0.238600 0.249400 0.343800 0.532600 0.632800 0.707200 0.707200 0.704200 0.688600 0.688600 0.665600 0.659800 0.659800 0.667200 0.677800 0.677800 0.657200 0.650400 0.650400 0.654400 0.668000 0.668000 0.682600 0.682200 0.681800 0.659200 0.614400 0.614400 0.640800 0.603000 0.603000 0.535600 0.535600 0.497200 0.424400 0.424400 0.398800 0.470600 0.470600 0.364600 0.221000 0.221000 0.199300 0.198300 0.198180 0.198060 0.220000 0.220000 0.281000 0.271000 0.271000 0.220080 0.218040 0.217800 0.209600 0.205800 0.205800 0.181800 0.163400 0.163400 0.158000 0.158000 0.165200 0.200800 0.312400 0.312400 0.374000 0.435600 0.464400 0.418000 0.356800 0.340800 0.297600 0.419600 0.436400 0.429200 0.429200 0.422800 0.411800 0.411800 0.416880 0.415640 0.415400 0.400400 0.389400 0.389400 0.378600 0.366200 0.365450 0.364700 0.363950 0.363200 0.357200 0.353000 0.352840 0.351580 0.348500 0.348300 0.338800 0.322200 0.260800 0.197400 0.136400 0.122800 0.198600 0.198600 0.255200 0.250400 0.250400 0.233000 0.167200 0.106400 0.089600 0.072600 0.072600 0.066000 0.048400 0.048320 0.048240 0.055400 0.055400 0.072200 0.077400 0.077400 0.082600 0.101000 0.101000 0.088800 0.096800 0.096800 0.131000 0.174600 0.174600 0.197000 0.184800 0.184800 0.163400 0.163400 0.135800 0.128600 0.128600 0.150360 0.151480 0.151800 0.144200 0.132400 0.132400 0.120400 0.108800 0.108800 0.097400 0.086200 0.086200 0.076600 0.068800 0.068800 0.062000 0.055800 0.055800 0.050000 0.044200 0.044200 0.039200 0.036000 0.036270 0.036540 0.035050 0.034760 0.032520 0.026600 0.026600 0.021867 0.020800 0.020400 0.019033 0.018033 0.017253 0.015760 0.015600 0.013400 0.011000 0.010760 0.010520 0.012600 0.012600 0.012600 0.009800 0.009714 0.008647 0.008597 0.008548 0.008499 0.008449 0.008400 0.006800 0.006000 0.006000 0.004800 0.003800 0.003800 0.002600 0.001800 0.001400 0.001000 0.000600 0.000200 0.000000 0.000000 0.000000 0.000000 0.000000 0.000000 0.000000 0.000000 0.000000 0.000000 0.000000 0.000000 0.000000 0.000000 0.000000 0.000000 0.000000 0.000000 0.000000 0.000000 0.000000 0.000000 0.000000 0.000000 0.000000 0.000000 0.000000 0.000000 0.000000 0.000000 0.000000 0.000000 0.000000 0.000000 0.000000 0.000000 0.000000 0.000000 0.000000 0.000000 0.000000 0.000000 0.000000 0.000000 0.000000 0.000000 0.000000 0.000000 0.000000 0.000000 0.000000 0.000000 0.000000 0.000000 0.000000 0.000000 0.000000 0.000000 0.000000 0.000000 0.000000 0.000000 0.000000 0.000000 0.000000 0.000000 0.000000 0.000000 0.000000 0.000000 0.000000 0.000000 0.000000 0.000000 0.000000 0.000000 0.000000 0.000000 0.000000 0.000000 0.000000 0.000000 0.000000 0.000000 0.000000 0.000000 0.000000 0.000000 0.000000 0.000000 0.000000 0.000000 0.000000 0.000000 0.000000 0.000000 0.000000 0.000000 0.000000 0.000000 0.000000 0.000000 0.000000 0.000000 0.000000 0.000000 0.000000 0.000000 0.000000 0.000000 0.000000 0.000000 0.000000 0.000000 0.000000 0.000000 0.000000 0.000000 0.000000 0.000000 0.000000 0.000000 0.000000 0.000000 0.000000 0.000000 0.000000 0.000000 0.000000 0.000000 0.000000 0.000000 0.000000 0.000000 0.000000 0.000000 0.000000 0.000000 0.000000 0.000000 0.000000 0.000000 0.000000 0.000000 0.000000 0.000000 0.000000 0.000000 0.000000 0.000000 0.000000 0.000000 0.000000 0.000000 0.000000 0.000000 0.000000 0.000000 0.000000 0.000000 0.000000 0.000000 0.000000 0.000000 0.000000 0.000000 0.000000 0.000000 0.000000 0.000000 0.000000 0.000000 0.000000 0.000000 0.000000 0.000000 0.000000 0.000000 0.000000 0.000000 0.000000 0.000000 0.000000 0.000000 0.000000 0.000000 0.000000 0.000000 0.000000 0.000000 0.000000 0.000000 0.000000 0.000000 0.000000 0.000000 0.000000 0.000000 0.000000 0.000000 0.000000 0.000000 0.000000 0.000000 0.000000 0.000000 0.000000 0.000000 0.000000 0.000000 0.000000 0.000000 0.000000 0.000000 0.000000 0.000000 0.000000 0.000000 0.000000 0.000000 0.000000 0.000000 0.000000 0.000000 0.000000 0.000000 0.000000 0.000000 0.000000 0.000000 0.000000 0.000000 0.000000 0.000000 0.000000 0.000000 0.000000 0.000000 0.000000 0.000000 0.000000 0.000000 0.000000 0.000000 0.000000 )
new generator.PV bus1=258896578 phases=3 kv=12.47 kW=7100 pf=1.00 Daily=LS_Solar enable=true
