New loadshape.LS_PhaseA npts=17280 sinterval=5 pmult=(1011.197327 1011.011806 1010.833518 1010.666681 1010.514819 1010.380619 1010.265819 1010.171135 1010.096242 1010.039789 1009.999472 1009.972134 1009.953916 1009.785023 1009.625426 1009.479151 1009.349521 1009.239012 1009.149147 1009.080426 1009.032312 1009.003254 1008.990753 1008.991478 1009.001412 1008.859832 1008.727429 1008.608184 1008.505397 1008.421540 1008.358148 1008.315752 1008.293855 1008.290955 1008.304614 1008.331558 1008.367834 1008.253350 1008.148241 1008.056503 1007.981444 1007.925539 1007.890321 1007.876309 1007.882994 1007.908853 1007.951423 1008.007406 1008.072816 1007.987143 1007.910904 1007.848088 1007.801999 1007.775105 1007.768931 1007.783994 1007.819776 1007.874751 1007.946449 1008.031565 1008.126109 1008.069561 1008.022430 1007.988700 1007.971667 1007.973794 1007.996601 1008.040596 1008.105257 1008.189051 1008.289501 1008.403296 1008.526439 1008.498375 1008.479630 1008.474182 1008.485322 1008.515507 1008.566249 1008.638052 1008.730388 1008.841714 1008.969549 1009.110574 1009.260782 1009.259513 1009.267387 1009.288377 1009.325772 1009.382024 1009.458644 1009.556129 1009.673945 1009.810543 1009.963432 1010.129285 1010.304084 1010.327251 1010.359292 1010.404161 1010.465130 1010.544635 1010.644170 1010.764220 1010.904238 1011.062669 1011.237016 1011.423948 1011.619450 1011.662544 1011.714169 1011.778317 1011.858297 1011.956582 1012.074700 1012.213170 1012.371473 1012.548075 1012.740496 1012.945414 1013.158813 1013.220055 1013.289689 1013.371661 1013.469225 1013.584794 1013.719834 1013.874798 1014.049100 1014.241142 1014.448381 1014.667437 1014.894243 1014.967578 1015.048527 1015.141038 1015.248379 1015.372982 1015.516340 1015.678932 1015.860208 1016.058604 1016.271612 1016.495887 1016.727396 1016.805170 1016.890084 1016.986095 1017.096474 1017.223656 1017.369129 1017.533367 1017.715808 1017.914876 1018.128048 1018.351963 1018.582570 1018.658634 1018.741276 1018.834454 1018.941438 1019.064661 1019.205611 1019.364761 1019.541550 1019.734402 1019.940794 1020.157366 1020.380067 1020.447630 1020.521212 1020.604773 1020.701585 1020.814082 1020.943753 1021.091072 1021.255480 1021.435399 1021.628308 1021.830845 1022.038960 1022.091323 1022.149158 1022.216430 1022.296413 1022.391545 1022.503316 1022.632206 1022.777653 1022.938085 1023.110981 1023.292981 1023.480038 1023.510782 1023.546487 1023.591121 1023.647962 1023.719454 1023.807090 1023.911353 1024.031688 1024.166523 1024.313343 1024.468793 1024.628828 1024.632726 1024.641093 1024.657864 1024.686289 1024.728784 1024.786829 1024.860893 1024.950420 1025.053850 1025.168685 1025.291600 1025.418589 1025.386815 1025.359229 1025.339955 1025.332419 1025.339204 1025.361925 1025.401165 1025.456439 1025.526216 1025.607980 1025.698338 1025.793164 1025.733867 1025.678506 1025.630678 1025.593267 1025.568307 1025.556883 1025.559081 1025.573973 1025.599651 1025.633310 1025.671362 1025.709595 1025.583526 1025.457643 1025.336153 1025.222640 1025.119904 1025.029848 1024.953398 1024.890463 1024.839955 1024.799838 1024.767228 1024.738527 1024.555852 1024.377625 1024.207963 1024.050252 1023.906999 1023.779730 1023.668922 1023.573991 1023.493319 1023.424324 1023.363581 1023.306972 1023.091887 1022.880828 1022.677789 1022.486083 1022.308199 1022.145690 1021.999107 1021.867977 1021.750825 1021.645235 1021.547967 1021.455093 1021.206521 1020.962470 1020.726969 1020.503359 1020.294146 1020.100893 1019.924149 1019.763435 1019.617257 1019.483181 1019.357941 1019.237583 1018.961509 1018.690425 1018.428361 1018.178660 1017.943833 1017.725443 1017.524048 1017.339172 1017.169330 1017.012095 1016.864211 1016.721733 1016.424274 1016.132343 1015.849969 1015.580497 1015.326437 1015.089357 1014.869816 1014.667344 1014.480462 1014.306750 1014.142960 1013.985157 1013.673174 1013.367308 1013.071588 1012.789355 1012.523119 1012.274450 1012.043909 1011.831028 1011.634333 1011.451410 1011.279018 1011.113230 1010.794516 1010.482518 1010.181238 1009.893994 1009.623275 1009.370636 1009.136627 1008.920779 1008.721624 1008.536760 1008.362965 1008.196339 1007.876261 1007.563597 1007.262455 1006.976256 1006.707582 1006.458067 1006.228326 1006.017930 1005.825426 1005.648400 1005.483586 1005.327008 1005.020855 1004.722768 1004.436519 1004.165181 1003.910988 1003.675239 1003.458233 1003.259260 1003.076629 1002.907740 1002.749203 1002.596985 1002.289787 1001.989045 1001.698894 1001.422826 1001.163540 1000.922825 1000.701492 1000.499340 1000.315173 1000.146863 999.991443 999.845255 999.551180 999.266778 998.996117 998.742554 998.508596 998.295790 998.104660 997.934691 997.784352 997.651169 997.531832 997.422355 997.162765 996.913045 996.677173 996.458451 996.259358 996.081448 995.925279 995.790390 995.675327 995.577706 995.494321 995.421289 995.200196 994.989576 994.793416 994.615019 994.456866 994.320499 994.206463 994.114282 994.042477 993.988639 993.949531 993.921239 993.744996 993.579642 993.429150 993.296813 993.185098 993.095539 993.028669 992.984001 992.960047 992.954387 992.963776 992.984287 992.857187 992.741253 992.640446 992.558046 992.496508 992.457355 992.441107 992.447267 992.474334 992.519877 992.580638 992.652680 992.577258 992.513128 992.464237 992.433854 992.424421 992.437448 992.473444 992.531898 992.611298 992.709199 992.822330 992.946740 992.923308 992.911150 992.914219 992.935789 992.978306 993.043277 993.131208 993.241577 993.372858 993.522585 993.687462 993.863505 993.892556 993.932629 993.987580 994.060584 994.153998 994.269252 994.406790 994.566043 994.745461 994.942577 995.154117 995.376145 995.448317 995.531129 995.628689 995.744433 995.880982 996.040019 996.222223 996.427239 996.653691 996.899247 997.160719 997.434204 997.562143 997.701967 997.857477 998.031763 998.227061 998.444648 998.684786 998.946697 999.228598 999.527769 999.840668 1000.163081 1000.334092 1000.514211 1000.707278 1000.916476 1001.144180 1001.391849 1001.659957 1001.947963 1002.254338 1002.576623 1002.911532 1003.255102 1003.448622 1003.650702 1003.865242 1004.095458 1004.343734 1004.611510 1004.899222 1005.206272 1005.531057 1005.871030 1006.222814 1006.582344 1006.789576 1007.004336 1007.230507 1007.471292 1007.729064 1008.005261 1008.300316 1008.613636 1008.943622 1009.287736 1009.642611 1010.004191 1010.212602 1010.427511 1010.652805 1010.891687 1011.146530 1011.418773 1011.708847 1012.016157 1012.339101 1012.675139 1013.020898 1013.372320 1013.569372 1013.771882 1013.983739 1014.208149 1014.447491 1014.703204 1014.975722 1015.264449 1015.567786 1015.883191 1016.207292 1016.536029 1016.709241 1016.886895 1017.072884 1017.270423 1017.481896 1017.708745 1017.951410 1018.209300 1018.480818 1018.763426 1019.053755 1019.347749 1019.486162 1019.628008 1019.777133 1019.936705 1020.109070 1020.295644 1020.496848 1020.712090 1020.939784 1021.177418 1021.421667 1021.668532 1021.755456 1021.845114 1021.941639 1022.048472 1022.168211 1022.302485 1022.451883 1022.615922 1022.793060 1022.980758 1023.175580 1023.373344 1023.417913 1023.464550 1023.516587 1023.576633 1023.646448 1023.726851 1023.817670 1023.917743 1024.024951 1024.136308 1024.248083 1024.355957 1024.294714 1024.229517 1024.164633 1024.103742 1024.049782 1024.004817 1023.969962 1023.945338 1023.930077 1023.922371 1023.919561 1023.918270 1023.763314 1023.610643 1023.464387 1023.327927 1023.203748 1023.093343 1022.997144 1022.914514 1022.843775 1022.782285 1022.726559 1022.672421 1022.457416 1022.243782 1022.035460 1021.835722 1021.647027 1021.470911 1021.307919 1021.157584 1021.018448 1020.888125 1020.763408 1020.640417 1020.360521 1020.082493 1019.810332 1019.547354 1019.296047 1019.057959 1018.833637 1018.622603 1018.423374 1018.233535 1018.049843 1017.868375 1017.529728 1017.193424 1016.863468 1016.543179 1016.235051 1015.940640 1015.660500 1015.394164 1015.140163 1014.896094 1014.658730 1014.424167 1014.033345 1013.645468 1013.264541 1012.893887 1012.535999 1012.192440 1011.863771 1011.549532 1011.248267 1010.957584 1010.674273 1010.394446 1009.959437 1009.528077 1009.104368 1008.691630 1008.292358 1007.908116 1007.539470 1007.185967 1006.846159 1006.517667 1006.197295 1005.881170 1005.411216 1004.945682 1004.488553 1004.043138 1003.611923 1003.196464 1002.797327 1002.414063 1002.045230 1001.688465 1001.340587 1000.997747 1000.501856 1000.011234 999.529897 999.061185 998.607614 998.170769 997.751239 997.348592 996.961397 996.587293 996.223095 995.864933 995.356178 994.853542 994.360909 993.881482 993.417643 992.970848 992.541568 992.129268 991.732434 991.348642 990.974666 990.606628 990.087063 989.573629 989.070330 988.580513 988.106721 987.650585 987.212759 986.792894 986.389663 986.000816 985.623295 985.253366 984.735560 984.225648 983.727596 983.244690 982.779394 982.333242 981.906780 981.499543 981.110082 980.736026 980.374198 980.020751 979.519648 979.027063 978.546915 978.082454 977.636122 977.209449 976.802984 976.416282 976.047920 975.695565 975.356078 975.025662 974.549323 974.082219 973.628253 973.190661 972.771873 972.373403 971.995791 971.638580 971.300338 970.978723 970.670591 970.372137 969.928717 969.495109 969.075192 968.672182 968.288490 967.925617 967.584089 967.263442 966.962237 966.678129 966.407974 966.147969 965.743948 965.350181 964.970525 964.608174 964.265520 963.944048 963.644272 963.365716 963.106935 962.865580 962.638506 962.421906 962.062070 961.712784 961.377880 961.060532 960.763111 960.487086 960.232959 960.000242 959.787483 959.592327 959.411625 959.241569 958.928415 958.625975 958.338084 958.067919 957.817852 957.589352 957.382918 957.198056 957.033302 956.886288 956.753843 956.632134 956.369279 956.117048 955.879130 955.658560 955.457586 955.277567 955.118918 954.981088 954.862592 954.761069 954.673399 954.595836 954.373959 954.162507 953.965511 953.786371 953.627697 953.491207 953.377651 953.286781 953.217369 953.167258 953.133464 953.112305 952.953801 952.807870 952.678112 952.567429 952.477897 952.410661 952.365890 952.342754 952.339462 952.353328 952.380887 952.418041 952.310643 952.212398 952.126954 952.057338 952.005815 951.973786 951.961718 951.969122 951.994571 952.035755 952.089588 952.152335 952.073466 952.003509 951.946187 951.904567 951.880922 951.876628 951.892101 951.926776 951.979133 952.046753 952.126431 952.214311 952.158503 952.110737 952.074702 952.053441 952.049210 952.063378 952.096361 952.147604 952.215601 952.297958 952.391495 952.492387 952.449456 952.413740 952.388920 952.378034 952.383335 952.406189 952.447012 952.505250 952.579400 952.667072 952.765093 952.869645 952.829773 952.796294 952.772887 952.762589 952.767650 952.789438 952.828372 952.883902 952.954531 953.037877 953.130774 953.229415 953.183062 953.142325 953.110885 953.091778 953.087259 953.098700 953.126523 953.170189 953.228206 953.298204 953.377030 953.460887 953.400815 953.345582 953.298781 953.263372 953.241543 953.234616 953.242989 953.266113 953.302519 953.349878 953.405108 953.464508 953.374253 953.288506 953.211293 953.145988 953.095164 953.060468 953.042552 953.041037 953.054518 953.080623 953.116104 953.156969 953.059559 952.966318 952.880016 952.802729 952.735721 952.679374 952.633154 952.595622 952.564475 952.536645 952.508416 952.475586 952.280517 952.080879 951.880886 951.684263 951.494093 951.312686 951.141496 950.981067 950.831031 950.690141 950.556341 950.426880 950.159700 949.898138 949.646187 949.407101 949.183256 948.976064 948.785914 948.612169 948.453196 948.306445 948.168567 948.035565 947.754016 947.477063 947.208402 946.951111 946.707516 946.479089 946.266386 946.069023 945.885696 945.714240 945.551728 945.394604 945.095183 944.801395 944.517020 944.245196 943.988286 943.747777 943.524215 943.317186 943.125339 942.946448 942.777512 942.614892 942.309408 942.010416 941.721696 941.446389 941.186860 940.944597 940.720152 940.513114 940.322136 940.144998 939.978703 939.819619 939.518698 939.225166 938.942802 938.674744 938.423359 938.190133 937.975616 937.779401 937.600139 937.435612 937.282825 937.138147 936.852641 936.575417 936.310248 936.060270 935.827842 935.614448 935.420636 935.245992 935.089169 934.947943 934.819318 934.699660 934.439309 934.188126 933.949925 933.727874 933.524364 933.340900 933.178040 933.035375 932.911544 932.804303 932.710619 932.626813 932.405895 932.194773 931.997027 931.815606 931.652697 931.509631 931.386832 931.283799 931.199137 931.130620 931.075302 931.029650 930.841555 930.663834 930.500705 930.355781 930.231916 930.131089 930.054328 930.001676 929.972195 929.964015 929.974426 930.000000 929.895943 929.807092 929.736913 929.688156 929.662728 929.661604 929.684780 929.731265 929.799116 929.885519 929.986897 930.099071 930.069253 930.049610 930.043711 930.054543 930.084368 930.134618 930.205833 930.297623 930.408695 930.536897 930.679317 930.832410 930.849286 930.876996 930.919255 930.979131 931.058904 931.159965 931.282758 931.426755 931.590483 931.771582 931.966913 932.172693 932.239055 932.315730 932.406383 932.514039 932.640950 932.788492 932.957104 933.146263 933.354511 933.579511 933.818152 934.066681 934.175960 934.295005 934.427469 934.576368 934.743943 934.931560 935.139646 935.367668 935.614154 935.876754 936.152343 936.437155 936.581908 936.735735 936.902281 937.084554 937.284787 937.504338 937.743625 938.002105 938.278295 938.569835 938.873586 939.185770 939.356949 939.536391 939.727736 939.933988 940.157374 940.399246 940.660014 940.939128 941.235097 941.545551 941.867343 942.196684 942.384667 942.579978 942.786213 943.006338 943.242546 943.496159 943.767568 944.056211 944.360594 944.678354 945.006362 945.340856 945.530514 945.726654 945.933066 946.152895 946.388502 946.641349 946.911933 947.199759 947.503354 947.820325 948.147457 948.480847 948.673458 948.871619 949.078558 949.296844 949.528253 949.773679 950.033089 950.305510 950.589063 950.881038 951.178003 951.475952 951.621401 951.767675 951.918650 952.077630 952.247201 952.429117 952.624227 952.832440 953.052732 953.283200 953.521145 953.763199 953.862635 953.966573 954.078794 954.202391 954.339637 954.491884 954.659504 954.841878 955.037414 955.243624 955.457229 955.674301 955.742889 955.814646 955.893222 955.981638 956.082146 956.196128 956.324031 956.465351 956.618644 956.781594 956.951108 957.123458 957.149150 957.177624 957.212574 957.257051 957.313331 957.382804 957.465919 957.562161 957.670069 957.787303 957.910740 958.036619 958.014729 957.995214 957.981773 957.977468 957.984577 958.004501 958.037697 958.083657 958.140928 958.207178 958.279295 958.353527 958.279741 958.208027 958.142093 958.085006 958.039054 958.005644 957.985240 957.977344 957.980513 957.992426 958.009980 958.029437 957.900798 957.774045 957.652891 957.540410 957.438897 957.349767 957.273492 957.209583 957.156609 957.112258 957.073444 957.036439 956.852005 956.669362 956.492197 956.323557 956.165718 956.020083 955.887121 955.766345 955.656337 955.554813 955.458718 955.364369 955.120960 954.879488 954.643799 954.417092 954.201784 953.999397 953.810497 953.634663 953.470510 953.315743 953.167259 953.021281 952.730902 952.442676 952.159996 951.885593 951.621414 951.368526 951.127071 950.896252 950.674365 950.458873 950.246514 950.033447 949.668026 949.302006 948.939295 948.583215 948.236366 947.900510 947.576505 947.264275 946.962816 946.670256 946.383940 946.100561 945.674426 945.251799 944.836501 944.431683 944.039686 943.661950 943.298953 942.950193 942.614221 942.288703 941.970530 941.655957 941.195595 940.738853 940.289437 939.850428 939.424145 939.012047 938.614672 938.231612 937.861541 937.502271 937.150853 936.803715 936.313959 935.828695 935.351651 934.885921 934.433831 933.996840 933.575482 933.169341 932.777079 932.396491 932.024614 931.657854 931.149241 930.645937 930.151657 929.669487 929.201746 928.749891 928.314452 927.895018 927.490254 927.097966 926.715199 926.338376 925.821058 925.309876 924.808530 924.320093 923.846878 923.390332 922.950985 922.528425 922.121320 921.727484 921.343970 920.967212 920.451318 919.942367 919.444044 918.959408 918.490760 918.039539 917.606270 917.190539 916.791017 916.405521 916.031112 915.664233 915.159278 914.662044 914.176214 913.704843 913.250229 912.813814 912.396119 911.996731 911.614318 911.246694 910.890919 910.543429 910.059995 909.584938 909.121849 908.673699 908.242711 907.830259 907.436818 907.061943 906.704291 906.361689 906.031228 905.709402 905.250854 904.801275 904.364446 903.943536 903.540968 903.158318 902.796247 902.454483 902.131832 901.826237 901.534872 901.254272 900.841928 900.440460 900.053390 899.683596 899.333185 899.003402 898.694572 898.406086 898.136431 897.883248 897.643440 897.413308 897.048260 896.692773 896.350384 896.024034 895.715930 895.427455 895.159101 894.910451 894.680197 894.466196 894.265569 894.074827 893.751724 893.438627 893.139106 892.856111 892.591845 892.347668 892.124037 891.920485 891.735648 891.567319 891.412550 891.267781 890.990237 890.722707 890.468727 890.231222 890.012374 889.813531 889.635141 889.476738 889.336961 889.213611 889.103754 889.003846 888.771733 888.549573 888.340885 888.148577 887.974819 887.820947 887.687401 887.573707 887.478501 887.399581 887.334012 887.278250 887.090446 886.912432 886.747711 886.599178 886.468993 886.358480 886.268072 886.197291 886.144767 886.108299 886.084947 886.071171 885.925376 885.789120 885.665893 885.558579 885.469328 885.399456 885.349391 885.318649 885.305859 885.308816 885.324582 885.349616 885.243227 885.146017 885.061425 884.992291 884.940725 884.908014 884.894563 884.899879 884.922592 884.960512 885.010724 885.069722 884.994726 884.928639 884.875087 884.837083 884.816899 884.815957 884.834771 884.872913 884.929036 885.000923 885.085579 885.179364 885.144037 885.117250 885.102061 885.100899 885.115448 885.146560 885.194215 885.257508 885.334687 885.423218 885.519893 885.620972 885.581976 885.547331 885.520731 885.505333 885.503622 885.517305 885.547237 885.593393 885.654871 885.729942 885.816131 885.910332 885.874936 885.848039 885.833230 885.833455 885.850879 885.886804 885.941608 886.014734 886.104711 886.209227 886.325222 886.449031 886.437888 886.434338 886.441837 886.463248 886.500715 886.555562 886.628237 886.718293 886.824403 886.944418 887.075461 887.214058 887.219861 887.233221 887.257631 887.295981 887.350429 887.422307 887.512056 887.619213 887.742427 887.879517 888.027569 888.183067 888.204834 888.234012 888.274097 888.327982 888.397828 888.484967 888.589844 888.711996 888.850069 889.001885 889.164526 889.334473 889.370427 889.413652 889.467649 889.535314 889.618811 889.719475 889.837750 889.973175 890.124397 890.289233 890.464766 890.647472 890.695901 890.751468 890.817678 890.897432 890.992897 891.105410 891.235418 891.382457 891.545175 891.721387 891.908173 892.102006 892.161362 892.227723 892.304594 892.394875 892.500731 892.623497 892.763620 892.920635 893.093189 893.279096 893.475438 893.678687 893.746788 893.821788 893.907226 894.006033 894.120403 894.251696 894.400374 894.565984 894.747174 894.941752 895.146782 895.358715 895.435936 895.519944 895.614201 895.721556 895.844119 895.983168 896.139087 896.311351 896.498547 896.698431 896.908033 897.123779 897.202889 897.288111 897.383004 897.490532 897.612930 897.751603 897.907068 898.078929 898.265897 898.465847 898.675909 898.892601 898.973916 899.061908 899.160128 899.271513 899.398255 899.541701 899.702299 899.879574 900.072149 900.277809 900.493593 900.715929 900.801796 900.894155 900.996547 901.111900 901.242406 901.389419 901.553396 901.733879 901.929508 902.138090 902.356684 902.581741 902.670346 902.765388 902.870416 902.988368 903.121442 903.270995 903.437484 903.620445 903.818515 904.029489 904.250417 904.477736 904.568160 904.664941 904.771637 904.891191 905.025803 905.176833 905.344738 905.529054 905.728414 905.940609 906.162682 906.391065 906.482204 906.579619 906.686870 906.806907 906.941935 907.093313 907.261500 907.446031 907.645535 907.857798 908.079860 908.308143 908.398830 908.495703 908.602330 908.721665 908.855915 909.006444 909.173710 909.357245 909.555677 909.766788 909.987610 910.214559 910.303921 910.399355 910.504414 910.622038 910.754420 910.902913 911.067967 911.249110 911.444968 911.653326 911.871223 912.095087 912.179768 912.270478 912.370876 912.484001 912.612138 912.756715 912.918240 913.096276 913.289458 913.495552 913.711551 913.933803 914.019230 914.110604 914.211295 914.324043 914.450829 914.592787 914.750144 914.922213 915.107414 915.303342 915.506873 915.714294 915.778984 915.847542 915.923678 916.010518 916.110468 916.225107 916.355126 916.500294 916.659476 916.830682 917.011166 917.197544 917.246544 917.301698 917.366667 917.444469 917.537347 917.646670 917.772877 917.915458 918.072976 918.243134 918.422871 918.608504 918.653853 918.704989 918.765506 918.838385 918.925854 919.029298 919.149192 919.285079 919.435595 919.598523 919.770895 919.949120 919.988106 920.032951 920.087274 920.154068 920.235574 920.333176 920.447347 920.577618 920.722610 920.880084 921.047047 921.219881 921.252916 921.291807 921.340174 921.401016 921.476572 921.568228 921.676454 921.800781 921.939824 922.091341 922.252334 922.419177 922.446024 922.478705 922.520842 922.575434 922.644724 922.730096 922.832018 922.950019 923.082712 923.227849 923.382426 923.542814 923.563004 923.588985 923.624381 923.672192 923.734659 923.813168 923.908186 924.019238 924.144932 924.283020 924.430490 924.583708 924.596528 924.615073 924.642969 924.683217 924.738058 924.808878 924.896139 924.999368 925.117168 925.247286 925.386708 925.531794 925.536275 925.546396 925.565783 925.597438 925.643604 925.705662 925.784078 925.878373 925.987150 926.108152 926.238359 926.374129 926.369107 926.369620 926.379294 926.401130 926.437368 926.489392 926.557661 926.641696 926.740096 926.850601 926.970190 927.095215 927.079237 927.068669 927.067140 927.077653 927.102450 927.142915 927.199510 927.271755 927.358252 927.456738 927.564193 927.676968 927.648595 927.625517 927.611362 927.609132 927.621068 927.648552 927.692043 927.751061 927.824201 927.909201 928.003035 928.102054 928.059754 928.022611 927.994254 927.977685 927.975143 927.988012 928.016749 928.060875 928.118986 928.188818 928.267349 928.350929 928.293068 928.240232 928.196049 928.163521 928.144890 928.141536 928.153920 928.181560 928.223055 928.276142 928.337798 928.404374 928.329415 928.259357 928.197829 928.147833 928.111609 928.090541 928.085088 928.094771 928.118190 928.153083 928.196431 928.244587 928.151158 928.062524 927.982313 927.913528 927.858411 927.818343 927.793789 927.784268 927.788384 927.803880 927.827737 927.856315 927.743308 927.635015 927.535065 927.446459 927.371441 927.311394 927.266784 927.237133 927.221048 927.216275 927.219803 927.227994 927.095535 926.967696 926.848054 926.739564 926.644432 926.564012 926.498750 926.448165 926.410871 926.384636 926.366487 926.352836 926.195673 926.043257 925.899406 925.767305 925.649369 925.547132 925.461180 925.391123 925.335608 925.292378 925.258360 925.229806 925.064440 924.903909 924.751323 924.609135 924.479023 924.361807 924.257407 924.164834 924.082229 924.006941 923.935635 923.864441 923.643322 923.422375 923.205512 922.996105 922.796842 922.609620 922.435462 922.274489 922.125921 921.988122 921.858683 921.734545 921.474474 921.220453 920.976263 920.745005 920.528968 920.329539 920.147142 919.981231 919.830315 919.692025 919.563228 919.440161 919.175331 918.916101 918.666076 918.428253 918.204885 917.997388 917.806272 917.631130 917.470649 917.322674 917.184304 917.052021 916.781654 916.517527 916.263284 916.021947 915.795785 915.586213 915.393732 915.217912 915.057412 914.910038 914.772845 914.642269 914.373424 914.111298 913.859527 913.621126 913.398358 913.192633 913.004449 912.833375 912.678066 912.536331 912.405224 912.281182 912.019533 911.765043 911.521339 911.291428 911.077565 910.881154 910.702688 910.541731 910.396937 910.266111 910.146308 910.033966 909.784622 909.542819 909.312175 909.095684 908.895594 908.713300 908.549289 908.403119 908.273440 908.158054 908.054015 907.957758 907.724394 907.498911 907.284950 907.085530 906.902915 906.738514 906.592822 906.465396 906.354878 906.259053 906.174948 906.098965 905.888480 905.685991 905.494952 905.318203 905.157845 905.015147 904.890496 904.783380 904.692412 904.615396 904.549429 904.491035 904.293744 904.104524 903.927328 903.765514 903.621708 903.497688 903.394319 903.311517 903.248259 903.202635 903.171935 903.152771 903.004638 902.868025 902.746290 902.642111 902.557366 902.493046 902.449204 902.424946 902.418465 902.427111 902.447502 902.475666 902.365042 902.261662 902.168960 902.089800 902.026338 901.979926 901.951044 901.939278 901.943336 901.961097 901.989710 902.025711 901.927435 901.836647 901.756894 901.691102 901.641443 901.609239 901.594899 901.597907 901.616836 901.649414 901.692619 901.742816 901.656283 901.576623 901.507342 901.451335 901.410753 901.386907 901.380211 901.390158 901.415343 901.453522 901.501709 901.556306 901.474473 901.398960 901.333264 901.280273 901.242132 901.220150 901.214737 901.225384 901.250689 901.288408 901.335559 901.388550 901.304758 901.226713 901.157909 901.101226 901.058808 901.031961 901.021094 901.025702 901.044383 901.074899 901.114274 901.158923 901.066450 900.979164 900.900551 900.833494 900.780133 900.741774 900.718828 900.710795 900.716277 900.733044 900.758127 900.787952 900.681680 900.580002 900.486328 900.403469 900.333508 900.277706 900.236450 900.209228 900.194660 900.190550 900.193988 900.201476 900.068162 899.939193 899.818339 899.708758 899.612850 899.532147 899.467247 899.417779 899.382414 899.358919 899.344244 899.334646 899.193919 899.057250 898.927350 898.806277 898.695327 898.594963 898.504783 898.423520 898.349091 898.278673 898.208822 898.135620 897.911197 897.683449 897.456296 897.233181 897.016926 896.809615 896.612513 896.426026 896.249693 896.082226 895.921577 895.765052 895.478008 895.196159 894.923233 894.662271 894.415499 894.184237 893.968856 893.768763 893.582431 893.407479 893.240768 893.078557 892.776766 892.479230 892.189424 891.910235 891.643843 891.391617 891.154065 890.930807 890.720593 890.521365 890.330343 890.144157 889.823697 889.508271 889.201417 888.906070 888.624436 888.357895 888.106944 887.871179 887.649310 887.439227 887.238092 887.042469 886.712142 886.387463 886.071966 885.768587 885.479529 885.206172 884.949016 884.707658 884.480815 884.266383 884.061530 883.862830 883.530343 883.204147 882.887773 882.584148 882.295474 882.023129 881.767611 881.528519 881.304573 881.093671 880.892988 880.699102 880.372345 880.052522 879.743153 879.447162 879.166743 878.903269 878.657237 878.428243 878.215007 878.015429 877.826688 877.645363 877.331348 877.024916 876.729618 876.448402 876.183489 875.936270 875.707251 875.496034 875.301331 875.121030 874.952281 874.791633 874.501487 874.219368 873.948623 873.692007 873.451562 873.228532 873.023305 872.835409 872.663528 872.505572 872.358773 872.219814 871.946878 871.682397 871.430267 871.193818 870.975668 870.777619 870.600588 870.444573 870.308662 870.191077 870.089263 870.000000 869.788019 869.588640 869.405105 869.239996 869.095112 868.971390 868.868854 868.786613 868.722892 868.675102 868.639947 868.613565 868.454004 868.302700 868.162985 868.037642 867.928779 867.837727 867.764984 867.710184 867.672117 867.648775 867.637444 867.634822 867.504287 867.382629 867.273304 867.179165 867.102334 867.044111 867.004912 866.984256 866.980785 866.992320 867.015956 867.048199 866.950087 866.860503 866.782855 866.719960 866.673917 866.646012 866.636663 866.645399 866.670878 866.710949 866.762743 866.822800 866.753027 866.691458 866.641493 866.605938 866.586885 866.585613 866.602533 866.637169 866.688177 866.753399 866.829966 866.914413 866.868758 866.830912 866.804266 866.791622 866.795063 866.815863 866.854431 866.910284 866.982076 867.067650 867.164131 867.268056 867.241531 867.222369 867.213955 867.219085 867.239841 867.277492 867.332443 867.404212 867.491451 867.592001 867.702988 867.820948 867.808970 867.803832 867.808863 867.826810 867.859709 867.908798 867.974459 868.056202 868.152682 868.261761 868.380599 868.505779 868.497493 868.495709 868.504007 868.525371 868.562054 868.615480 868.686175 868.773740 868.876864 868.993376 869.120332 869.254142 869.260833 869.273621 869.295349 869.328243 869.373792 869.432679 869.504736 869.588941 869.683458 869.785704 869.892458 870.000000 869.966125 869.932998 869.904302 869.883221 869.872302 869.873348 869.887343 869.914420 869.953863 870.004144 870.063004 870.127562 870.064585 870.007981 869.961306 869.927464 869.908592 869.905964 869.919943 869.949970 869.994586 870.051501 870.117698 870.189563 870.127132 870.070132 870.021943 869.985369 869.962516 869.954693 869.962360 869.985101 870.021647 870.069931 870.127176 870.190022 870.121736 870.059116 870.005593 869.964010 869.936492 869.924359 869.928063 869.947172 869.980388 870.025604 870.079999 870.140163 870.068374 870.002376 869.945606 869.900908 869.870412 869.855441 869.856450 869.873009 869.903823 869.946786 869.999080 870.057296 869.983677 869.916008 869.857728 869.811684 869.780009 869.764028 869.764199 869.780093 869.810416 869.853065 869.905221 869.963476 869.890030 869.822715 869.764971 869.719647 869.688880 869.673994 869.675450 869.692819 869.724808 869.769313 869.823515 869.884006 869.812956 869.748225 869.693256 869.650898 869.623287 869.611750 869.616745 869.637844 869.673754 869.722370 869.780872 869.845852 869.779363 869.719387 869.669371 869.632171 869.609928 869.603969 869.614758 869.641866 869.684000 869.739052 869.804198 869.876022 869.816626 869.763923 869.721346 869.691735 869.677217 869.679104 869.697844 869.732994 869.783248 869.846487 869.919879 870.000000 869.948719 869.904189 869.869860 869.848589 869.842521 869.852990 869.880460 869.924512 869.983855 870.056388 870.139292 870.229156 870.187935 870.153704 870.129907 870.119398 870.124311 870.145969 870.184823 870.240436 870.311500 870.395897 870.490786 870.592740 870.563493 870.541313 870.529642 870.531329 870.54850