New loadshape.LS_PhaseA npts=17280 sinterval=5 pmult=(1495.803711 1496.654589 1497.515364 1498.391545 1499.287639 1500.206929 1501.151316 1502.121223 1503.115556 1504.131739 1505.165811 1506.212590 1507.265886 1508.087606 1508.915193 1509.754312 1510.609636 1511.484615 1512.381318 1513.300330 1514.240712 1515.200034 1516.174470 1517.158957 1518.147408 1518.901726 1519.659527 1520.426537 1521.207463 1522.005779 1522.823558 1523.661372 1524.518261 1525.391762 1526.278005 1527.171882 1528.067258 1528.724960 1529.383661 1530.049102 1530.726013 1531.417887 1532.126820 1532.853409 1533.596718 1534.354307 1535.122334 1535.895716 1536.668342 1537.200835 1537.732153 1538.268078 1538.813372 1539.371562 1539.944774 1540.533630 1541.137218 1541.753121 1542.377516 1543.005338 1543.630495 1544.013217 1544.392937 1544.775473 1545.165630 1545.566969 1545.981650 1546.410328 1546.852120 1547.304638 1547.764088 1548.225429 1548.682600 1548.895595 1549.104174 1549.314200 1549.530518 1549.756728 1549.995028 1550.246109 1550.509124 1550.781719 1551.060135 1551.339368 1551.613391 1551.645356 1551.671800 1551.698442 1551.729998 1551.769963 1551.820461 1551.882148 1551.954183 1552.034270 1552.118754 1552.202789 1552.280553 1552.104849 1551.923721 1551.743811 1551.570721 1551.408757 1551.260737 1551.127862 1551.009657 1550.903977 1550.807089 1550.713820 1550.617766 1550.292507 1549.962159 1549.630806 1549.301387 1548.975536 1548.653477 1548.333985 1548.014414 1547.690783 1547.357936 1547.009752 1546.639404 1545.991662 1545.322070 1544.637697 1543.944901 1543.249071 1542.554418 1541.863820 1541.178738 1540.499184 1539.823770 1539.149808 1538.473478 1537.571775 1536.670627 1535.776661 1534.895268 1534.030399 1533.184418 1532.358027 1531.550257 1530.758529 1529.978790 1529.205698 1528.432881 1527.414184 1526.395511 1525.382871 1524.381300 1523.394645 1522.425401 1521.474616 1520.541850 1519.625211 1518.721445 1517.826095 1516.933707 1515.810308 1514.690722 1513.581127 1512.486677 1511.411294 1510.357499 1509.326323 1508.317269 1507.328353 1506.356201 1505.396213 1504.442784 1503.259310 1502.083105 1500.920338 1499.776160 1498.654487 1497.557841 1496.487256 1495.442245 1494.420833 1493.419664 1492.434157 1491.458725 1490.257562 1489.067190 1487.893758 1486.742398 1485.617013 1484.520113 1483.452724 1482.414357 1481.403039 1480.415418 1479.446919 1478.491971 1477.315560 1476.153391 1475.011578 1473.895225 1472.808208 1471.753016 1470.730658 1469.740630 1468.780951 1467.848261 1466.937986 1466.044550 1464.930940 1463.834958 1462.762837 1461.719789 1460.709778 1459.735361 1458.797583 1457.895946 1457.028434 1456.191616 1455.380806 1454.590278 1453.592733 1452.615283 1451.663353 1450.741377 1449.852616 1448.999020 1448.181168 1447.398250 1446.648129 1445.927456 1445.231843 1444.556087 1443.655867 1442.778031 1441.930185 1441.119034 1440.350122 1439.627622 1438.954190 1438.330885 1437.757153 1437.230875 1436.748492 1436.305176 1435.682338 1435.098822 1434.559629 1434.068490 1433.627688 1433.237943 1432.898361 1432.606455 1432.358227 1432.148318 1431.970213 1431.816511 1431.441775 1431.089417 1430.764786 1430.472412 1430.215791 1429.997211 1429.817638 1429.676668 1429.572528 1429.502155 1429.461325 1429.444839 1429.228125 1429.036425 1428.875574 1428.750369 1428.664363 1428.619700 1428.617025 1428.655457 1428.732620 1428.844750 1428.986857 1429.152948 1429.108816 1429.088327 1429.097125 1429.139860 1429.219983 1429.339582 1429.499288 1429.698245 1429.934140 1430.203299 1430.500845 1430.820908 1430.932359 1431.066036 1431.227541 1431.421483 1431.651275 1431.918967 1432.225157 1432.568954 1432.948014 1433.358631 1433.795896 1434.253911 1434.501584 1434.769632 1435.063622 1435.388133 1435.746545 1436.140883 1436.571715 1437.038124 1437.537740 1438.066830 1438.620460 1439.192705 1439.552417 1439.930304 1440.331910 1440.761795 1441.223316 1441.718477 1442.247829 1442.810434 1443.403902 1444.024482 1444.667220 1445.326171 1445.772486 1446.234400 1446.717304 1447.225615 1447.762571 1448.330078 1448.928617 1449.557217 1450.213487 1450.893713 1451.593014 1452.305556 1452.794362 1453.296561 1453.818212 1454.364370 1454.938855 1455.544064 1456.180860 1456.848510 1457.544701 1458.265621 1459.006101 1459.759820 1460.305101 1460.861298 1461.432507 1462.021745 1462.630784 1463.260034 1463.908492 1464.573754 1465.252086 1465.938565 1466.627270 1467.311523 1467.747187 1468.178000 1468.610315 1469.049736 1469.500874 1469.967150 1470.450659 1470.952092 1471.470720 1472.004452 1472.549937 1473.102744 1473.442480 1473.791066 1474.154519 1474.537706 1474.944139 1475.375830 1475.833208 1476.315103 1476.818800 1477.340157 1477.873784 1478.413283 1478.719876 1479.031432 1479.353514 1479.690729 1480.046518 1480.422998 1480.820859 1481.239333 1481.676214 1482.127960 1482.589835 1483.056118 1483.296452 1483.541128 1483.795860 1484.065368 1484.353168 1484.661411 1484.990783 1485.340477 1485.708218 1486.090368 1486.482075 1486.877492 1487.043411 1487.212894 1487.391683 1487.584525 1487.794962 1488.025165 1488.275844 1488.546210 1488.834007 1489.135613 1489.446192 1489.759913 1489.843353 1489.929843 1490.025152 1490.134052 1490.260110 1490.405520 1490.571012 1490.755818 1490.957700 1491.173054 1491.397061 1491.623906 1491.620018 1491.618930 1491.626437 1491.647337 1491.685218 1491.742296 1491.819323 1491.915548 1492.028753 1492.155353 1492.290545 1492.428534 1492.335682 1492.245641 1492.164227 1492.096259 1492.045345 1492.013722 1492.002157 1492.009921 1492.034814 1492.073267 1492.120499 1492.170731 1491.990278 1491.812895 1491.644422 1491.489700 1491.352360 1491.234657 1491.137381 1491.059819 1490.999790 1490.953742 1490.916911 1490.883533 1490.620077 1490.360177 1490.109677 1489.873422 1489.655044 1489.456803 1489.279494 1489.122408 1488.983372 1488.858843 1488.744068 1488.633301 1488.293036 1487.956927 1487.630842 1487.319649 1487.027005 1486.755199 1486.505050 1486.275881 1486.065549 1485.870540 1485.686133 1485.506610 1485.098797 1484.696065 1484.304286 1483.928335 1483.571873 1483.237191 1482.925113 1482.634964 1482.364606 1482.110529 1481.868019 1481.631364 1481.167580 1480.709865 1480.264093 1479.835140 1479.426670 1479.040982 1478.678907 1478.339780 1478.021474 1477.720496 1477.432144 1477.150727 1476.643622 1476.143687 1475.656796 1475.187823 1474.740434 1474.316928 1473.918141 1473.543414 1473.190625 1472.856291 1472.535722 1472.223237 1471.686569 1471.158231 1470.644090 1470.149017 1469.676674 1469.229358 1468.807906 1468.411661 1468.038506 1467.684965 1467.346355 1467.017007 1466.465047 1465.922597 1465.395514 1464.888660 1464.405690 1463.948897 1463.519113 1463.115682 1462.736490 1462.378063 1462.035726 1461.703816 1461.150869 1460.608593 1460.082829 1459.578429 1459.099036 1458.646934 1458.222953 1457.826431 1457.455253 1457.105947 1456.773841 1456.453277 1455.913525 1455.385528 1454.875093 1454.387038 1453.924981 1453.491183 1453.086456 1452.710132 1452.360092 1452.032870 1451.723806 1451.427259 1450.911876 1450.409306 1449.925424 1449.465113 1449.032050 1448.628551 1448.255464 1447.912145 1447.596480 1447.304987 1447.032967 1446.774714 1446.301290 1445.841581 1445.401183 1444.984696 1444.595510 1444.235666 1443.905757 1443.604907 1443.330812 1443.079835 1442.847174 1442.627075 1442.188074 1441.761795 1441.354104 1440.969911 1440.612957 1440.285653 1439.988980 1439.722450 1439.484136 1439.270763 1439.077854 1438.899939 1438.508999 1438.133424 1437.779011 1437.450549 1437.151616 1436.884420 1436.649707 1436.446734 1436.273302 1436.125856 1435.999646 1435.888938 1435.563636 1435.253843 1434.965270 1434.702647 1434.469519 1434.268086 1434.099109 1433.961880 1433.854249 1433.772725 1433.712628 1433.668301 1433.410998 1433.169531 1432.949602 1432.755932 1432.592051 1432.460142 1432.360945 1432.293728 1432.256316 1432.245189 1432.255637 1432.281971 1432.095277 1431.924473 1431.775239 1431.652275 1431.559092 1431.497852 1431.469279 1431.472623 1431.505696 1431.564960 1431.645693 1431.742190 1431.625651 1431.524835 1431.445402 1431.392033 1431.368218 1431.376103 1431.416395 1431.488328 1431.589695 1431.716948 1431.865346 1432.029170 1431.979682 1431.945536 1431.932375 1431.944859 1431.986463 1432.059316 1432.164109 1432.300060 1432.464949 1432.655211 1432.866090 1433.091855 1433.103874 1433.130650 1433.177801 1433.249969 1433.350607 1433.481828 1433.644305 1433.837243 1434.058405 1434.304217 1434.569913 1434.849749 1434.914751 1434.993763 1435.092416 1435.215364 1435.366073 1435.546662 1435.757807 1435.998710 1436.267127 1436.559466 1436.870937 1437.195765 1437.305542 1437.428415 1437.569929 1437.734647 1437.925941 1438.145840 1438.394938 1438.672359 1438.975793 1439.301592 1439.644928 1440.000000 1440.137420 1440.286373 1440.452488 1440.640423 1440.853661 1441.094345 1441.363186 1441.659425 1441.980867 1442.323969 1442.683997 1443.055233 1443.209164 1443.374160 1443.555830 1443.758799 1443.986498 1444.241009 1444.522968 1444.831537 1445.164431 1445.518020 1445.887480 1446.267006 1446.427251 1446.597311 1446.782775 1446.988258 1447.217185 1447.471641 1447.752271 1448.058251 1448.387315 1448.735854 1449.099070 1449.471181 1449.623105 1449.783709 1449.958589 1450.152366 1450.368470 1450.608989 1450.874569 1451.164385 1451.476170 1451.806310 1452.150004 1452.501466 1452.631437 1452.768965 1452.919654 1453.088128 1453.277825 1453.490836 1453.727814 1453.987938 1454.268946 1454.567230 1454.877992 1455.195454 1455.290318 1455.391688 1455.505177 1455.635418 1455.785857 1455.958593 1456.154287 1456.372127 1456.609859 1456.863883 1457.129412 1457.400676 1457.448378 1457.501649 1457.566112 1457.646410 1457.746000 1457.866993 1458.010061 1458.174400 1458.357772 1458.556587 1458.766071 1458.980468 1458.971417 1458.967100 1458.973100 1458.994029 1459.033314 1459.093049 1459.173897 1459.275062 1459.394322 1459.528124 1459.671740 1459.819475 1459.740200 1459.665194 1459.600296 1459.550362 1459.519047 1459.508639 1459.519954 1459.552303 1459.603509 1459.670005 1459.746978 1459.828582 1459.689486 1459.554319 1459.428218 1459.315312 1459.218526 1459.139439 1459.078208 1459.033552 1459.002798 1458.981994 1458.966078 1458.949097 1458.697893 1458.445658 1458.198359 1457.961071 1457.737756 1457.531098 1457.342391 1457.171489 1457.016828 1456.875501 1456.743400 1456.615408 1456.267354 1455.924180 1455.591735 1455.274834 1454.977048 1454.700559 1454.446066 1454.212766 1453.998389 1453.799302 1453.610678 1453.426709 1453.016979 1452.611821 1452.216922 1451.837004 1451.475617 1451.134986 1450.815915 1450.517755 1450.238436 1449.974558 1449.721549 1449.473867 1449.004599 1448.540905 1448.088520 1447.652208 1447.235548 1446.840780 1446.468712 1446.118689 1445.788628 1445.475108 1445.173529 1444.878323 1444.362012 1443.852305 1443.354944 1442.874697 1442.415149 1441.978549 1441.565717 1441.176011 1440.807361 1440.456363 1440.118438 1439.788036 1439.238071 1438.695888 1438.167228 1437.656861 1437.168378 1436.704033 1436.264652 1435.849604 1435.456830 1435.082943 1434.723377 1434.372601 1433.803926 1433.244317 1432.699513 1432.174283 1431.672216 1431.195571 1430.745178 1430.320412 1429.919225 1429.538237 1429.172898 1428.817690 1428.247796 1427.688238 1427.144664 1426.621760 1426.123047 1425.650727 1425.205599 1424.787027 1424.392973 1424.020098 1423.663909 1423.318976 1422.756057 1422.205076 1421.672075 1421.162123 1420.679084 1420.225459 1419.802275 1419.409042 1419.043776 1418.703081 1418.382301 1418.075718 1417.563823 1417.065300 1416.584987 1416.126701 1415.693055 1415.285333 1414.903424 1414.545818 1414.209662 1413.890885 1413.584369 1413.284180 1412.757690 1412.237822 1411.730749 1411.241825 1410.775352 1410.334412 1409.920745 1409.534694 1409.175210 1408.839919 1408.525248 1408.226609 1407.726091 1407.243018 1406.783336 1406.351926 1405.952405 1405.586983 1405.256375 1404.959784 1404.694944 1404.458230 1404.244822 1404.048932 1403.641874 1403.252208 1402.885569 1402.546647 1402.238984 1401.964818 1401.724992 1401.518919 1401.344614 1401.198783 1401.076971 1400.973770 1400.665760 1400.376654 1400.112137 1399.876925 1399.674568 1399.507286 1399.375884 1399.279717 1399.216721 1399.183509 1399.175524 1399.187243 1398.993616 1398.819836 1398.671562 1398.553484 1398.469122 1398.420672 1398.408909 1398.433158 1398.491327 1398.579996 1398.694574 1398.829506 1398.759561 1398.710031 1398.686546 1398.693767 1398.735185 1398.812965 1398.927850 1399.079135 1399.264690 1399.481060 1399.723618 1399.986765 1400.045002 1400.123805 1400.228772 1400.364537 1400.534559 1400.740970 1400.984481 1401.264350 1401.578412 1401.923170 1402.293955 1402.685126 1402.867043 1403.069433 1403.298084 1403.557797 1403.852174 1404.183449 1404.552386 1404.958244 1405.398799 1405.870439 1406.368314 1406.886547 1407.207313 1407.547209 1407.910964 1408.302362 1408.724072 1409.177531 1409.662878 1410.178960 1410.723386 1411.292648 1411.882289 1412.487127 1412.864823 1413.260228 1413.681093 1414.134343 1414.625797 1415.159948 1415.739800 1416.366759 1417.040604 1417.759512 1418.520158 1419.317871 1419.944028 1420.606763 1421.310355 1422.057745 1422.850378 1423.688099 1424.569124 1425.490074 1426.446069 1427.430897 1428.437231 1429.456906 1430.243685 1431.040319 1431.851622 1432.681685 1433.533653 1434.409552 1435.310167 1436.234979 1437.182166 1438.148663 1439.130275 1440.121850 1440.904526 1441.697465 1442.506221 1443.335318 1444.188045 1445.066294 1445.970469 1446.899456 1447.850661 1448.820106 1449.802599 1450.791949 1451.555460 1452.324909 1453.105670 1453.902145 1454.717555 1455.553781 1456.411273 1457.289009 1458.184531 1459.094039 1460.012540 1460.934062 1461.629552 1462.327383 1463.032951 1463.750680 1464.483814 1465.234254 1466.002468 1466.787456 1467.586776 1468.396646 1469.212092 1470.027160 1470.612560 1471.196971 1471.785823 1472.383576 1472.993504 1473.617544 1474.256195 1474.908488 1475.572014 1476.243022 1476.916571 1477.586741 1478.024113 1478.457593 1478.892657 1479.333810 1479.784370 1480.246317 1480.720195 1481.205077 1481.698600 1482.197057 1482.695554 1483.188219 1483.453995 1483.713106 1483.970599 1484.230590 1484.496071 1484.768780 1485.049117 1485.336127 1485.627542 1485.919882 1486.208608 1486.488329 1486.510991 1486.526672 1486.542768 1486.565644 1486.600349 1486.650379 1486.717500 1486.801654 1486.900919 1487.011557 1487.128127 1487.243667 1487.163585 1487.076188 1486.982186 1486.881001 1486.770709 1486.648033 1486.508401 1486.346074 1486.154318 1485.925647 1485.652100 1485.325562 1484.675932 1483.973686 1483.227249 1482.444886 1481.634388 1480.802783 1479.956113 1479.099247 1478.235767 1477.367907 1476.496557 1475.621329 1474.554743 1473.491311 1472.438295 1471.401432 1470.384754 1469.390475 1468.418949 1467.468706 1466.536554 1465.617752 1464.706249 1463.794972 1462.635112 1461.474162 1460.317783 1459.170778 1458.036894 1456.918664 1455.817312 1454.732709 1453.663396 1452.606665 1451.558691 1450.514723 1449.256118 1448.002980 1446.761406 1445.536517 1444.332244 1443.151177 1441.994476 1440.861832 1439.751512 1438.660445 1437.584386 1436.518121 1435.234580 1433.961867 1432.706077 1431.472325 1430.264539 1429.085306 1427.935780 1426.815653 1425.723186 1424.655308 1423.607771 1422.575360 1421.331355 1420.103477 1418.897795 1417.719398 1416.572189 1415.458730 1414.380153 1413.336124 1412.324882 1411.343332 1410.387204 1409.451257 1408.309077 1407.187997 1406.094039 1405.032247 1404.006480 1403.019256 1402.071660 1401.163317 1400.292421 1399.455836 1398.649245 1397.867364 1396.873792 1395.906262 1394.971321 1394.074490 1393.220026 1392.410746 1391.647915 1390.931196 1390.258673 1389.626940 1389.031255 1388.465754 1387.727294 1387.016871 1386.338162 1385.693932 1385.085922 1384.514802 1383.980162 1383.480573 1383.013696 1382.576441 1382.165173 1381.775952 1381.140688 1380.535464 1379.972109 1379.461851 1379.014936 1378.640293 1378.345243 1378.135288 1378.013958 1377.982736 1378.041062 1378.186401 1378.243277 1378.387004 1378.619964 1378.942565 1379.353172 1379.848105 1380.421715 1381.066530 1381.773478 1382.532162 1383.331209 1384.158643 1384.738493 1385.338414 1385.962186 1386.613285 1387.294647 1388.008460 1388.756003 1389.537540 1390.352262 1391.198285 1392.072708 1392.971721 1393.694712 1394.444136 1395.225697 1396.043986 1396.902259 1397.802290 1398.744279 1399.726831 1400.747001 1401.800415 1402.881436 1403.983408 1404.869320 1405.774586 1406.704342 1407.662763 1408.652849 1409.676277 1410.733303 1411.822729 1412.941933 1414.086962 1415.252685 1416.432996 1417.401643 1418.383749 1419.384420 1420.407800 1421.456864 1422.533266 1423.637238 1424.767566 1425.921609 1427.095400 1428.283796 1429.480680 1430.459824 1431.446311 1432.445239 1433.460746 1434.495808 1435.552078 1436.629792 1437.727739 1438.843288 1439.972482 1441.110190 1442.250313 1443.166698 1444.084393 1445.008514 1445.943222 1446.891512 1447.855062 1448.834136 1449.827553 1450.832715 1451.845699 1452.861413 1453.873798 1454.668825 1455.458881 1456.248436 1457.041063 1457.839261 1458.644332 1459.456309 1460.273946 1461.094757 1461.915123 1462.730438 1463.535312 1464.077213 1464.611059 1465.144649 1465.684752 1466.236784 1466.804541 1467.389997 1467.993165 1468.612044 1469.242632 1469.879021 1470.513562 1470.970200 1471.415465 1471.847590 1472.263407 1472.658356 1473.026547 1473.360884 1473.653260 1473.894792 1474.076119 1474.187732 1474.220337 1473.889888 1473.480434 1473.001242 1472.461797 1471.871434 1471.239007 1470.572600 1469.879286 1469.164933 1468.434087 1467.689900 1466.934134 1466.000880 1465.065574 1464.135826 1463.217504 1462.314577 1461.429013 1460.560772 1459.707862 1458.866473 1458.031181 1457.195220 1456.350799 1455.244244 1454.126851 1453.003957 1451.880120 1450.758916 1449.642795 1448.532980 1447.429421 1446.330812 1445.234660 1444.137409 1443.034618 1441.715763 1440.393025 1439.072397 1437.758915 1436.456453 1435.167571 1433.893428 1432.633751 1431.386868 1430.149801 1428.918425 1427.687670 1426.234969 1424.784019 1423.340846 1421.910514 1420.496930 1419.102686 1417.728972 1416.375551 1415.040784 1413.721734 1412.414311 1411.113485 1409.597259 1408.088814 1406.594182 1405.118435 1403.665486 1402.237935 1400.836983 1399.462401 1398.112566 1396.784551 1395.474282 1394.176745 1392.670493 1391.178151 1389.705734 1388.258296 1386.839732 1385.452627 1384.098170 1382.776117 1381.484834 1380.221383 1378.981683 1377.760706 1376.327183 1374.914051 1373.527877 1372.174220 1370.857404 1369.580339 1368.344419 1367.149470 1365.993769 1364.874140 1363.786097 1362.724062 1361.490640 1360.281435 1359.100128 1357.949512 1356.831390 1355.746520 1354.694625 1353.674447 1352.683860 1351.720030 1350.779614 1349.859003 1348.695422 1347.560141 1346.465091 1345.421632 1344.440168 1343.529819 1342.698132 1341.950866 1341.291839 1340.722854 1340.243690 1339.852173 1339.379368 1338.994479 1338.699891 1338.496030 1338.381296 1338.352069 1338.402791 1338.526118 1338.713138 1338.953656 1339.236532 1339.550060 1339.623899 1339.720431 1339.843458 1339.996512 1340.182618 1340.404093 1340.662391 1340.957991 1341.290341 1341.657857 1342.057971 1342.487235 1342.751615 1343.047448 1343.380479 1343.755359 1344.175432 1344.642593 1345.157197 1345.718040 1346.322407 1346.966187 1347.644039 1348.349629 1348.852137 1349.381179 1349.941914 1350.538560 1351.174192 1351.850596 1352.568172 1353.325902 1354.121384 1354.950920 1355.809663 1356.691821 1357.377370 1358.085555 1358.821487 1359.589341 1360.392150 1361.231656 1362.108220 1363.020787 1363.966916 1364.942869 1365.943765 1366.963774 1367.782684 1368.619847 1369.480347 1370.368335 1371.286821 1372.237526 1373.220789 1374.235535 1375.279303 1376.348335 1377.437728 1378.541632 1379.439570 1380.351122 1381.281372 1382.234466 1383.213414 1384.219935 1385.254367 1386.315632 1387.401266 1388.507512 1389.629463 1390.761266 1391.691633 1392.630461 1393.582301 1394.550818 1395.538607 1396.547070 1397.576339 1398.625259 1399.691428 1400.771297 1401.860312 1402.953115 1403.807185 1404.666789 1405.539122 1406.430379 1407.345465 1408.287749 1409.258886 1410.258701 1411.285151 1412.334347 1413.400663 1414.476904 1415.380738 1416.286700 1417.194361 1418.102001 1419.006571 1419.903714 1420.787851 1421.652317 1422.489564 1423.291408 1424.049322 1424.754761 1425.138599 1425.469698 1425.756419 1426.007111 1426.229784 1426.431814 1426.619690 1426.798814 1426.973359 1427.146181 1427.318797 1427.491426 1427.488102 1427.492060 1427.510341 1427.548417 1427.610018 1427.697029 1427.809455 1427.945461 1428.101485 1428.272416 1428.451836 1428.632318 1428.567012 1428.500515 1428.438069 1428.384106 1428.342050 1428.314164 1428.301449 1428.303604 1428.319039 1428.344950 1428.377446 1428.411727 1428.234259 1428.059508 1427.893256 1427.740328 1427.604390 1427.487796 1427.391491 1427.314983 1427.256374 1427.212451 1427.178836 1427.150199 1426.902311 1426.659894 1426.428773 1426.213816 1426.018725 1425.845883 1425.696264 1425.569394 1425.463387 1425.375041 1425.299983 1425.232881 1424.948843 1424.673290 1424.412080 1424.170108 1423.951096 1423.757446 1423.590140 1423.448710 1423.331270 1423.234612 1423.154352 1423.085144 1422.801412 1422.529263 1422.274570 1422.042238 1421.835998 1421.658251 1421.509977 1421.390698 1421.298513 1421.230192 1421.181326 1421.146539 1420.892949 1420.654286 1420.436806 1420.245758 1420.085166 1419.957651 1419.864329 1419.804763 1419.776992 1419.777615 1419.801950 1419.844244 1419.692298 1419.556953 1419.442648 1419.352885 1419.290092 1419.255524 1419.249234 1419.270091 1419.315867 1419.383370 1419.468631 1419.567135 1419.423898 1419.299140 1419.202601 1419.143287 1419.129146 1419.166793 1419.261292 1419.416000 1419.632487 1419.910513 1420.248090 1420.641602 1420.895225 1421.204765 1421.573876 1422.004587 1422.497179 1423.050127 1423.660113 1424.322109 1425.029531 1425.774455 1426.547889 1427.340103 1427.889565 1428.452538 1429.033608 1429.636814 1430.265412 1430.921688 1431.606817 1432.320781 1433.062342 1433.829080 1434.617478 1435.423074 1436.032454 1436.660349 1437.312610 1437.994010 1438.708026 1439.456680 1440.240450 1441.058242 1441.907431 1442.783970 1443.682559 1444.596876 1445.289341 1445.996623 1446.724218 1447.476639 1448.257200 1449.067866 1449.909147 1450.780070 1451.678208 1452.599773 1453.539776 1454.492230 1455.225957 1455.971519 1456.734396 1457.519085 1458.328887 1459.165745 1460.030151 1460.921109 1461.836166 1462.771508 1463.722116 1464.681974 1465.419399 1466.165426 1466.925533 1467.704213 1468.504762 1469.329117 1470.177760 1471.049685 1471.942427 1472.852159 1473.773846 1474.701457 1475.402882 1476.109582 1476.827044 1477.559769 1478.311059 1479.082858 1479.875649 1480.688431 1481.518738 1482.362745 1483.215415 1484.070718 1484.701339 1485.333702 1485.973017 1486.623535 1487.288343 1487.969219 1488.666546 1489.379283 1490.105007 1490.840007 1491.579446 1492.317566 1492.810213 1493.302371 1493.800681 1494.310766 1494.836965 1495.382123 1495.947450 1496.532445 1497.134883 1497.750884 1498.375044 1499.000629 1499.416031 1499.828583 1500.240829 1500.654137 1501.068569 1501.482820 1501.894214 1502.298766 1502.691301 1503.065641 1503.414836 1503.731445 1503.757377 1503.750550 1503.718252 1503.667283 1503.603672 1503.532445 1503.457438 1503.381182 1503.304832 1503.228176 1503.149695 1503.066694 1502.771685 1502.476082 1502.186466 1501.908090 1501.644683 1501.398320 1501.169357 1500.956436 1500.756566 1500.565261 1500.376753 1500.184251 1499.742631 1499.295861 1498.849557 1498.408415 1497.976007 1497.554621 1497.145163 1496.747121 1496.358587 1495.976344 1495.596017 1495.212265 1494.598603 1493.982129 1493.368745 1492.763365 1492.169697 1491.590088 1491.025428 1490.475121 1489.937117 1489.408007 1488.883188 1488.357068 1487.598211 1486.838482 1486.083806 1485.339120 1484.608157 1483.893289 1483.195437 1482.514034 1481.847062 1481.191151 1480.541734 1479.893261 1479.014860 1478.137901 1477.268325 1476.411081 1475.569916 1474.747223 1473.943941 1473.159527 1472.391991 1471.637990 1470.892991 1470.151479 1469.183231 1468.219019 1467.264785 1466.325482 1465.404864 1464.505330 1463.627833 1462.771845 1461.935394 1461.115161 1460.306638 1459.504338 1458.476984 1457.456524 1456.448995 1455.459435 1454.491674 1453.548175 1452.629934 1451.736448 1450.865748 1450.014493 1449.178130 1448.351104 1447.308631 1446.275599 1445.257541 1444.259019 1443.283426 1442.332857 1441.408025 1440.508250 1439.631507 1438.774531 1437.932982 1437.101667 1436.045300 1435.001046 1433.975839 1432.975696 1432.005477 1431.068705 1430.167434 1429.302189 1428.471970 1427.674316 1426.905437 1426.160400 1425.220759 1424.305422 1423.419661 1422.567599 1421.752019 1420.974247 1420.234079 1419.529791 1418.858200 1418.214791 1417.593912 1416.989008 1416.164939 1415.355883 1414.567333 1413.803924 1413.069221 1412.365554 1411.693918 1411.053929 1410.443838 1409.860616 1409.300088 1408.757125 1408.010400 1407.282015 1406.577770 1405.902466 1405.259700 1404.651711 1404.079289 1403.541751 1403.036968 1402.561473 1402.110614 1401.678766 1401.038923 1400.418224 1399.822333 1399.255949 1398.722596 1398.224470 1397.762353 1397.335576 1396.942054 1396.578382 1396.239986 1395.921333 1395.397853 1394.894269 1394.416204 1393.968314 1393.554087 1393.175688 1392.833868 1392.527932 1392.255775 1392.013969 1391.797926 1391.602094 1391.202370 1390.822937 1390.469376 1390.146306 1389.857180 1389.604129 1389.387877 1389.207703 1389.061478 1388.945755 1388.855924 1388.786416 1388.513489 1388.260891 1388.034165 1387.837896 1387.675502 1387.549088 1387.459348 1387.405537 1387.385501 1387.395774 1387.431724 1387.487764 1387.340861 1387.213957 1387.112537 1387.041128 1387.003100 1387.000513 1387.034026 1387.102865 1387.204858 1387.336524 1387.493230 1387.669390 1387.640601 1387.631260 1387.646951 1387.692296 1387.770752 1387.884448 1388.034095 1388.218942 1388.436813 1388.684189 1388.956362 1389.247637 1389.336594 1389.444118 1389.575394 1389.734636 1389.924888 1390.147884 1390.403957 1390.692023 1391.009615 1391.352988 1391.717269 1392.096680 1392.265492 1392.449213 1392.653442 1392.882867 1393.141059 1393.430307 1393.751519 1394.104184 1394.486389 1394.894910 1395.325347 1395.772327 1396.014534 1396.273382 1396.554391 1396.862092 1397.199830 1397.569609 1397.972004 1398.406131 1398.869681 1399.359020 1399.869339 1400.394870 1400.710575 1401.041084 1401.391819 1401.767254 1402.170711 1402.604204 1403.068346 1403.562318 1404.083896 1404.629544 1405.194565 1405.773300 1406.142043 1406.524225 1406.925292 1407.349738 1407.800893 1408.280772 1408.789980 1409.327682 1409.891629 1410.478256 1411.082827 1411.699646 1412.104111 1412.520512 1412.954303 1413.409984 1413.890889 1414.399036 1414.935032 1415.498040 1416.085806 1416.694760 1417.320157 1417.956292 1418.378125 1418.810383 1419.258533 1419.727087 1420.219388 1420.737463 1421.281922 1421.851930 1422.445235 1423.058260 1423.686260 1424.323521 1424.744540 1425.174517 1425.618938 1426.082331 1426.568052 1427.078140 1427.613214 1428.172444 1428.753581 1429.353051 1429.966106 1430.587028 1430.991509 1431.403487 1431.828375 1432.270631 1432.733555 1433.219140 1433.727979 1434.259236 1434.810676 1435.378763 1435.958809 1436.545184 1436.907708 1437.276759 1437.658228 1438.057035 1438.476897 1438.920164 1439.387703 1439.878857 1440.391458 1440.921911 1441.465342 1442.015797 1442.353240 1442.696257 1443.049423 1443.416287 1443.799189 1444.199139 1444.615748 1445.047226 1445.490447 1445.941068 1446.393704 1446.842163 1447.050882 1447.255310 1447.461576 1447.675003 1447.899879 1448.139272 1448.394912 1448.667127 1448.954844 1449.255651 1449.565922 1449.880997 1449.981283 1450.087599 1450.205858 1450.340896 1450.496265 1450.674086 1450.874964 1451.097969 1451.340679 1451.599295 1451.868805 1452.143211 1452.190266 1452.241799 1452.303426 1452.379813 1452.474469 1452.589588 1452.725958 1452.882922 1453.058407 1453.249017 1453.450183 1453.656370 1453.640922 1453.630651 1453.631276 1453.647544 1453.683014 1453.739906 1453.819001 1453.919616 1454.039626 1454.175567 1454.322787 1454.475656 1454.405481 1454.341053 1454.288109 1454.251412 1454.234535 1454.239709 1454.267726 1454.317908 1454.388137 1454.474953 1454.573706 1454.678769 1454.561207 1454.450074 1454.351119 1454.269115 1454.207645 1454.168949 1454.153823 1454.161595 1454.190150 1454.236027 1454.294577 1454.360171 1454.203689 1454.054382 1453.918010 1453.799352 1453.701996 1453.628185 1453.578719 1453.552926 1453.548688 1453.562547 1453.589849 1453.624962 1453.437382 1453.257815 1453.092097 1452.945073 1452.820390 1452.720334 1452.645733 1452.595925 1452.568783 1452.560819 1452.567331 1452.582620 1452.380121 1452.186194 1452.006333 1451.845054 1451.705705 1451.590315 1451.499514 1451.432508 1451.387127 1451.359920 1451.346326 1451.340880 1451.109051 1450.886417 1450.679470 1450.493764 1450.333685 1450.202274 1450.101106 1450.030235 1449.988207 1449.972133 1449.977827 1450.000000 1449.815405 1449.647354 1449.501186 1449.381142 1449.290162 1449.229750 1449.199904 1449.199098 1449.224345 1449.271310 1449.334492 1449.407453 1449.254750 1449.110906 1448.981433 1448.870944 1448.782937 1448.719634 1448.681876 1448.669082 1448.679274 1448.709156 1448.754263 1448.809154 1448.647667 1448.496287 1448.360759 1448.245831 1448.155038 1448.090550 1448.053074 1448.041830 1448.054578 1448.087720 1448.136460 1448.195014 1448.032915 1447.880535 1447.743546 1447.626639 1447.533315 1447.465729 1447.424597 1447.409157 1447.417211 1447.445214 1447.488431 1447.541149 1447.374384 1447.217081 1447.074900 1446.952527 1446.853452 1446.779825 1446.732354 1446.710277 1446.711390 1446.732148 1446.767816 1446.812683 1446.637964 1446.472399 1446.321640 1446.190363 1446.082054 1445.998857 1445.941477 1445.909149 1445.899671 1445.909499 1445.933900 1445.967167 1445.780749 1445.603150 1445.440019 1445.296023 1445.174646 1445.078028 1445.006874 1444.960420 1444.936465 1444.931470 1444.940709 1444.958481 1444.758844 1444.567574 1444.390177 1444.231194 1444.094000 1443.980650 1443.891797 1443.826655 1443.783041 1443.757470 1443.7