New loadshape.LS_Solar npts=1440 sinterval=60 mult=(0.000000 0.000000 0.000000 0.000000 0.000000 0.000000 0.000000 0.000000 0.000000 0.000000 0.000000 0.000000 0.000000 0.000000 0.000000 0.000000 0.000000 0.000000 0.000000 0.000000 0.000000 0.000000 0.000000 0.000000 0.000000 0.000000 0.000000 0.000000 0.000000 0.000000 0.000000 0.000000 0.000000 0.000000 0.000000 0.000000 0.000000 0.000000 0.000000 0.000000 0.000000 0.000000 0.000000 0.000000 0.000000 0.000000 0.000000 0.000000 0.000000 0.000000 0.000000 0.000000 0.000000 0.000000 0.000000 0.000000 0.000000 0.000000 0.000000 0.000000 0.000000 0.000000 0.000000 0.000000 0.000000 0.000000 0.000000 0.000000 0.000000 0.000000 0.000000 0.000000 0.000000 0.000000 0.000000 0.000000 0.000000 0.000000 0.000000 0.000000 0.000000 0.000000 0.000000 0.000000 0.000000 0.000000 0.000000 0.000000 0.000000 0.000000 0.000000 0.000000 0.000000 0.000000 0.000000 0.000000 0.000000 0.000000 0.000000 0.000000 0.000000 0.000000 0.000000 0.000000 0.000000 0.000000 0.000000 0.000000 0.000000 0.000000 0.000000 0.000000 0.000000 0.000000 0.000000 0.000000 0.000000 0.000000 0.000000 0.000000 0.000000 0.000000 0.000000 0.000000 0.000000 0.000000 0.000000 0.000000 0.000000 0.000000 0.000000 0.000000 0.000000 0.000000 0.000000 0.000000 0.000000 0.000000 0.000000 0.000000 0.000000 0.000000 0.000000 0.000000 0.000000 0.000000 0.000000 0.000000 0.000000 0.000000 0.000000 0.000000 0.000000 0.000000 0.000000 0.000000 0.000000 0.000000 0.000000 0.000000 0.000000 0.000000 0.000000 0.000000 0.000000 0.000000 0.000000 0.000000 0.000000 0.000000 0.000000 0.000000 0.000000 0.000000 0.000000 0.000000 0.000000 0.000000 0.000000 0.000000 0.000000 0.000000 0.000000 0.000000 0.000000 0.000000 0.000000 0.000000 0.000000 0.000000 0.000000 0.000000 0.000000 0.000000 0.000000 0.000000 0.000000 0.000000 0.000000 0.000000 0.000000 0.000000 0.000000 0.000000 0.000000 0.000000 0.000000 0.000000 0.000000 0.000000 0.000000 0.000000 0.000000 0.000000 0.000000 0.000000 0.000000 0.000000 0.000000 0.000000 0.000000 0.000000 0.000000 0.000000 0.000000 0.000000 0.000000 0.000000 0.000000 0.000000 0.000000 0.000000 0.000000 0.000000 0.000000 0.000000 0.000000 0.000000 0.000000 0.000000 0.000000 0.000000 0.000000 0.000000 0.000000 0.000000 0.000000 0.000000 0.000000 0.000000 0.000000 0.000000 0.000000 0.000000 0.000000 0.000000 0.000000 0.000000 0.000000 0.000000 0.000000 0.000000 0.000000 0.000000 0.000000 0.000000 0.000000 0.000000 0.000000 0.000000 0.000000 0.000000 0.000000 0.000000 0.000000 0.000000 0.000100 0.000101 0.000101 0.000102 0.000102 0.000103 0.000103 0.000104 0.000104 0.000105 0.000105 0.000106 0.000106 0.000107 0.000107 0.000108 0.000108 0.000109 0.000109 0.000110 0.000110 0.000111 0.000112 0.000112 0.000113 0.000113 0.000114 0.000114 0.000115 0.000115 0.000116 0.000116 0.000117 0.000117 0.000118 0.000118 0.000119 0.000119 0.000120 0.000120 0.000121 0.000121 0.000122 0.000122 0.000123 0.000123 0.000124 0.000124 0.000125 0.000125 0.000126 0.000126 0.000127 0.000127 0.000128 0.000128 0.000129 0.000129 0.000130 0.000130 0.000131 0.000131 0.000132 0.000132 0.000133 0.000133 0.000134 0.000134 0.000135 0.000135 0.000136 0.000136 0.000137 0.000137 0.000138 0.000138 0.000139 0.000139 0.000140 0.000140 0.000141 0.000141 0.000142 0.000142 0.000143 0.000143 0.000144 0.000144 0.000145 0.000145 0.000146 0.000146 0.000147 0.000147 0.000148 0.000148 0.000149 0.000149 0.000150 0.000150 0.000151 0.000151 0.000152 0.000152 0.000153 0.000153 0.000154 0.000154 0.000155 0.000155 0.000156 0.000157 0.000157 0.000158 0.000158 0.000159 0.000159 0.000160 0.000160 0.000161 0.000161 0.000162 0.000162 0.000163 0.000163 0.000164 0.000164 0.000165 0.000165 0.000166 0.000166 0.000167 0.000167 0.000168 0.000168 0.000169 0.000169 0.000170 0.000170 0.000171 0.000171 0.000172 0.000172 0.000173 0.000173 0.000174 0.000174 0.000175 0.000175 0.000176 0.000176 0.000177 0.000177 0.000178 0.000178 0.000179 0.000179 0.000180 0.000180 0.000181 0.000181 0.000182 0.000182 0.000183 0.000183 0.000184 0.000184 0.000185 0.000185 0.000186 0.000186 0.000187 0.000187 0.000188 0.000188 0.000189 0.000189 0.000190 0.000190 0.000191 0.000191 0.000192 0.000192 0.000193 0.000193 0.000194 0.000194 0.000195 0.000195 0.000196 0.001196 0.001197 0.002197 0.003798 0.003798 0.004999 0.007399 0.007400 0.012800 0.021200 0.021200 0.031400 0.044600 0.044600 0.058600 0.074200 0.074200 0.089600 0.089600 0.106000 0.123400 0.123400 0.138400 0.155200 0.155200 0.171800 0.186800 0.186800 0.200800 0.213600 0.213600 0.227600 0.242000 0.242000 0.256600 0.270400 0.270400 0.286600 0.300000 0.300000 0.313200 0.326000 0.326000 0.339000 0.351400 0.351400 0.361600 0.372000 0.372000 0.382200 0.392000 0.392000 0.401400 0.401400 0.411400 0.420400 0.420400 0.429000 0.438200 0.438200 0.447200 0.455200 0.455200 0.463600 0.472000 0.472000 0.480400 0.489000 0.489000 0.496800 0.503800 0.503800 0.512000 0.519600 0.519600 0.526400 0.534000 0.534000 0.542200 0.550000 0.550000 0.558000 0.564200 0.564200 0.571720 0.573960 0.574200 0.582600 0.582600 0.590200 0.596200 0.603200 0.603200 0.609200 0.609200 0.616600 0.624600 0.624600 0.630400 0.633600 0.633600 0.640800 0.646600 0.646600 0.653600 0.661400 0.661400 0.667400 0.673200 0.673200 0.679600 0.686000 0.686000 0.692200 0.697200 0.697200 0.703000 0.707800 0.707800 0.714800 0.719800 0.719800 0.725600 0.725600 0.733200 0.738600 0.738600 0.743520 0.743360 0.743200 0.740200 0.761200 0.697000 0.753600 0.769600 0.769600 0.772600 0.776600 0.777080 0.777560 0.775800 0.775400 0.788600 0.793000 0.792920 0.792840 0.770800 0.770800 0.804600 0.808800 0.808800 0.783800 0.774600 0.774600 0.792800 0.822000 0.822200 0.824000 0.824200 0.826700 0.828500 0.831800 0.831800 0.836800 0.837040 0.838880 0.842800 0.842960 0.845370 0.847950 0.848050 0.848150 0.854600 0.855000 0.856800 0.860400 0.860350 0.858725 0.859725 0.859965 0.861455 0.871200 0.871600 0.873965 0.873895 0.873825 0.874675 0.864800 0.864800 0.878000 0.885600 0.885600 0.890200 0.896600 0.896973 0.896547 0.899400 0.899400 0.899200 0.898800 0.901108 0.902725 0.902835 0.902945 0.894400 0.894400 0.890000 0.908000 0.863800 0.902120 0.899560 0.899400 0.911938 0.912615 0.912467 0.913640 0.913573 0.913506 0.914027 0.913974 0.913920 0.913867 0.913067 0.913200 0.913333 0.912640 0.912920 0.913200 0.913600 0.913440 0.913280 0.913000 0.912933 0.913267 0.913156 0.912259 0.912176 0.912094 0.912478 0.912462 0.912046 0.912430 0.910600 0.849400 0.850200 0.644400 0.888600 0.678600 0.783600 0.716400 0.646200 0.627000 0.778800 0.906000 0.821000 0.684800 0.513800 0.483000 0.483000 0.492800 0.552900 0.615400 0.508200 0.525400 0.525400 0.474600 0.408200 0.408200 0.385600 0.385600 0.411800 0.451800 0.519800 0.497800 0.514000 0.736200 0.802000 0.730600 0.518200 0.547600 0.497000 0.575200 0.481800 0.476600 0.415800 0.480600 0.480800 0.419800 0.359600 0.302600 0.302600 0.310400 0.283800 0.283800 0.327800 0.296800 0.296800 0.273800 0.298400 0.298400 0.335200 0.359200 0.359200 0.317400 0.317400 0.302200 0.341600 0.480600 0.541800 0.523400 0.523400 0.466400 0.377800 0.377800 0.357600 0.384200 0.384200 0.430200 0.418600 0.418600 0.390800 0.386000 0.325000 0.292200 0.266400 0.266400 0.260200 0.276200 0.276200 0.308400 0.373200 0.373200 0.418400 0.473600 0.473600 0.494200 0.791800 0.565200 0.690200 0.331800 0.331800 0.325000 0.364600 0.364600 0.406600 0.406600 0.432200 0.743200 0.759000 0.611400 0.380400 0.339600 0.460000 0.828000 0.538400 0.453600 0.892400 0.674000 0.500200 0.548200 0.566800 0.461200 0.671800 0.541200 0.660200 0.912800 0.908200 0.845000 0.423400 0.742000 0.868400 0.729600 0.682600 0.427000 0.626800 0.499800 0.531200 0.499800 0.438800 0.368400 0.304000 0.304000 0.340000 0.340000 0.366600 0.298200 0.298200 0.276200 0.301800 0.301800 0.289200 0.305800 0.305800 0.316600 0.288800 0.288800 0.253200 0.232000 0.231840 0.229880 0.214600 0.214600 0.201800 0.232000 0.232000 0.251800 0.175400 0.175400 0.208200 0.179000 0.179000 0.165080 0.165640 0.166200 0.173200 0.173200 0.201400 0.255800 0.255800 0.275600 0.225200 0.225200 0.199400 0.186200 0.186200 0.176800 0.168600 0.168600 0.160800 0.148400 0.148400 0.135000 0.151000 0.151000 0.174800 0.167800 0.167800 0.149200 0.143400 0.143400 0.125800 0.119600 0.119600 0.106200 0.090400 0.090400 0.085000 0.092200 0.092200 0.084622 0.083467 0.083289 0.083111 0.082933 0.085511 0.100600 0.100840 0.102280 0.078600 0.078600 0.073800 0.088600 0.088600 0.092600 0.090000 0.090560 0.091120 0.102600 0.102120 0.100440 0.086200 0.086200 0.078520 0.080760 0.081000 0.075200 0.069200 0.069200 0.078864 0.078991 0.079118 0.079245 0.078273 0.077800 0.081200 0.081200 0.086000 0.097800 0.081200 0.081200 0.089200 0.089200 0.086400 0.093600 0.093600 0.098800 0.108800 0.108800 0.112000 0.092800 0.092800 0.092800 0.084200 0.083720 0.082240 0.076200 0.076200 0.072360 0.073880 0.074200 0.098000 0.123600 0.123600 0.109200 0.101200 0.100880 0.100560 0.106400 0.106400 0.097200 0.086600 0.086600 0.114800 0.105600 0.105600 0.073200 0.073200 0.065400 0.061000 0.061000 0.049400 0.039400 0.039400 0.021920 0.019760 0.019360 0.018720 0.022800 0.022800 0.028405 0.027015 0.026625 0.027617 0.029825 0.029815 0.029805 0.021200 0.020850 0.020500 0.020150 0.019800 0.018000 0.012000 0.012000 0.008800 0.004600 0.004680 0.004760 0.003400 0.003400 0.003200 0.002800 0.002000 0.001200 0.001200 0.000200 0.000199 0.000199 0.000199 0.000198 0.000198 0.000197 0.000197 0.000196 0.000196 0.000196 0.000195 0.000195 0.000194 0.000194 0.000194 0.000193 0.000193 0.000192 0.000192 0.000191 0.000191 0.000191 0.000190 0.000190 0.000189 0.000189 0.000189 0.000188 0.000188 0.000187 0.000187 0.000186 0.000186 0.000186 0.000185 0.000185 0.000184 0.000184 0.000184 0.000183 0.000183 0.000182 0.000182 0.000181 0.000181 0.000181 0.000180 0.000180 0.000179 0.000179 0.000179 0.000178 0.000178 0.000177 0.000177 0.000176 0.000176 0.000176 0.000175 0.000175 0.000174 0.000174 0.000174 0.000173 0.000173 0.000172 0.000172 0.000171 0.000171 0.000171 0.000170 0.000170 0.000169 0.000169 0.000169 0.000168 0.000168 0.000167 0.000167 0.000166 0.000166 0.000166 0.000165 0.000165 0.000164 0.000164 0.000164 0.000163 0.000163 0.000162 0.000162 0.000161 0.000161 0.000161 0.000160 0.000160 0.000159 0.000159 0.000159 0.000158 0.000158 0.000157 0.000157 0.000156 0.000156 0.000156 0.000155 0.000155 0.000154 0.000154 0.000154 0.000153 0.000153 0.000152 0.000152 0.000151 0.000151 0.000151 0.000150 0.000150 0.000149 0.000149 0.000149 0.000148 0.000148 0.000147 0.000147 0.000146 0.000146 0.000146 0.000145 0.000145 0.000144 0.000144 0.000144 0.000143 0.000143 0.000142 0.000142 0.000141 0.000141 0.000141 0.000140 0.000140 0.000139 0.000139 0.000139 0.000138 0.000138 0.000137 0.000137 0.000136 0.000136 0.000136 0.000135 0.000135 0.000134 0.000134 0.000134 0.000133 0.000133 0.000132 0.000132 0.000131 0.000131 0.000131 0.000130 0.000130 0.000129 0.000129 0.000129 0.000128 0.000128 0.000127 0.000127 0.000126 0.000126 0.000126 0.000125 0.000125 0.000124 0.000124 0.000124 0.000123 0.000123 0.000122 0.000122 0.000121 0.000121 0.000121 0.000120 0.000120 0.000119 0.000119 0.000119 0.000118 0.000118 0.000117 0.000117 0.000116 0.000116 0.000116 0.000115 0.000115 0.000114 0.000114 0.000114 0.000113 0.000113 0.000112 0.000112 0.000111 0.000111 0.000111 0.000110 0.000110 0.000109 0.000109 0.000109 0.000108 0.000108 0.000107 0.000107 0.000106 0.000106 0.000106 0.000105 0.000105 0.000104 0.000104 0.000104 0.000103 0.000103 0.000102 0.000102 0.000101 0.000101 0.000101 0.000100 0.000000 0.000000 0.000000 0.000000 0.000000 0.000000 0.000000 0.000000 0.000000 0.000000 0.000000 0.000000 0.000000 0.000000 0.000000 0.000000 0.000000 0.000000 0.000000 0.000000 0.000000 0.000000 0.000000 0.000000 0.000000 0.000000 0.000000 0.000000 0.000000 0.000000 0.000000 0.000000 0.000000 0.000000 0.000000 0.000000 0.000000 0.000000 0.000000 0.000000 0.000000 0.000000 0.000000 0.000000 0.000000 0.000000 0.000000 0.000000 0.000000 0.000000 0.000000 0.000000 0.000000 0.000000 0.000000 0.000000 0.000000 0.000000 0.000000 0.000000 0.000000 0.000000 0.000000 0.000000 0.000000 0.000000 0.000000 0.000000 0.000000 0.000000 0.000000 0.000000 0.000000 0.000000 0.000000 0.000000 0.000000 0.000000 0.000000 0.000000 0.000000 0.000000 0.000000 0.000000 0.000000 0.000000 0.000000 0.000000 0.000000 0.000000 0.000000 0.000000 0.000000 0.000000 0.000000 0.000000 0.000000 0.000000 0.000000 0.000000 0.000000 0.000000 0.000000 0.000000 0.000000 0.000000 0.000000 0.000000 0.000000 0.000000 0.000000 0.000000 0.000000 0.000000 0.000000 0.000000 0.000000 0.000000 0.000000 0.000000 0.000000 0.000000 0.000000 0.000000 0.000000 0.000000 0.000000 0.000000 0.000000 0.000000 0.000000 0.000000 0.000000 0.000000 0.000000 0.000000 0.000000 0.000000 0.000000 0.000000 0.000000 0.000000 0.000000 0.000000 0.000000 0.000000 0.000000 0.000000 0.000000 0.000000 0.000000 0.000000 0.000000 0.000000 0.000000 0.000000 0.000000 0.000000 0.000000 0.000000 0.000000 0.000000 0.000000 0.000000 0.000000 0.000000 0.000000 0.000000 0.000000 )
new generator.PV bus1=258896321 phases=3 kv=12.47 kW=4500 pf=1.00 Daily=LS_Solar enable=true
