New loadshape.LS_PhaseA npts=1440 sinterval=60 pmult=(1246.710693 1245.910874 1245.209740 1244.698120 1244.460417 1244.572082 1245.097387 1246.087583 1247.579478 1249.594469 1252.138062 1255.031898 1258.432664 1262.313400 1266.632042 1271.332277 1276.344847 1281.589249 1286.975801 1292.408007 1297.785156 1302.630935 1307.250204 1311.576316 1315.545365 1319.096836 1322.174295 1324.726111 1326.706235 1328.075013 1328.800049 1328.906956 1328.326969 1327.050674 1325.079870 1322.428580 1319.123911 1315.206698 1310.731895 1305.768649 1300.400024 1294.058669 1287.572565 1281.113934 1274.856244 1268.968463 1263.609431 1258.922537 1255.030883 1252.033108 1250.000000 1249.178276 1249.352108 1250.481685 1252.498138 1255.306309 1258.788380 1262.808236 1267.216413 1271.855483 1276.565674 1280.768674 1284.776753 1288.489791 1291.821496 1294.701463 1297.076793 1298.913244 1300.195882 1300.929219 1301.136841 1300.433420 1299.339393 1297.962791 1296.419781 1294.829829 1293.310879 1291.974687 1290.922503 1290.241218 1290.000122 1290.489689 1291.476000 1292.944160 1294.859124 1297.167791 1299.801748 1302.680554 1305.715426 1308.813177 1311.880249 1314.119706 1316.217303 1318.157361 1319.929627 1321.528017 1322.949220 1324.191234 1325.251919 1326.127651 1326.812134 1327.157500 1327.296922 1327.223071 1326.922769 1326.376582 1325.558846 1324.438162 1322.978351 1321.139862 1318.881592 1316.393373 1313.390651 1309.822903 1305.650430 1300.848424 1295.410803 1289.353600 1282.717771 1275.571232 1268.010010 1259.040417 1250.026415 1241.234224 1232.939481 1225.417220 1218.931669 1213.726213 1210.013879 1207.968683 1207.718140 1209.986353 1214.085482 1219.922671 1227.352681 1236.182588 1246.177976 1257.070414 1268.565967 1280.354470 1292.119263 1302.873419 1313.051100 1322.427513 1330.800532 1337.994860 1343.865498 1348.300445 1351.222594 1352.590785 1352.400024 1350.404748 1346.967698 1342.207792 1336.270029 1329.320488 1321.540978 1313.123490 1304.264634 1295.160200 1286.000000 1276.968141 1268.223335 1259.910888 1252.154830 1245.055856 1238.690061 1233.108467 1228.337335 1224.379203 1221.214600 1218.379151 1216.279038 1214.878102 1214.124860 1213.953946 1214.287897 1215.039272 1216.113039 1217.409196 1218.825562 1220.198253 1221.497563 1222.637013 1223.538582 1224.134946 1224.371493 1224.208045 1223.620253 1222.600594 1221.158936 1218.876179 1216.281037 1213.469881 1210.548885 1207.629891 1204.826177 1202.248248 1199.999804 1198.173995 1196.850098 1195.982938 1195.732166 1196.129867 1197.185778 1198.886605 1201.196127 1204.056110 1207.387995 1211.095316 1215.066772 1219.194703 1223.335984 1227.356625 1231.124360 1234.513478 1237.409553 1239.713928 1241.347778 1242.255616 1242.408081 1240.878135 1238.696956 1235.995816 1232.923903 1229.641594 1226.313421 1223.101004 1220.156204 1217.614769 1215.590698 1214.776957 1214.573337 1214.956725 1215.877550 1217.263176 1219.022192 1221.049420 1223.231446 1225.452428 1227.599976 1228.811382 1229.824611 1230.630053 1231.232097 1231.648300 1231.908085 1232.051029 1232.124798 1232.182835 1232.281860 1232.204212 1232.300963 1232.645845 1233.303186 1234.324326 1235.744504 1237.580372 1239.828212 1242.462965 1245.438110 1249.017997 1252.758110 1256.528806 1260.190684 1263.600284 1266.616108 1269.104767 1270.947003 1272.043369 1272.319336 1270.731270 1268.350229 1265.278115 1261.641397 1257.585796 1253.270406 1248.861472 1244.526035 1240.425693 1236.710693 1233.930913 1231.745170 1230.207541 1229.349138 1229.178471 1229.682627 1230.829172 1232.568680 1234.837787 1237.562622 1240.068445 1242.917649 1246.074130 1249.498910 1253.150366 1256.984462 1260.955041 1265.014161 1269.112520 1273.199951 1277.117097 1280.931279 1284.602451 1288.091404 1291.360048 1294.371794 1297.092030 1299.488706 1301.532981 1303.199951 1304.212299 1304.834317 1305.077927 1304.958985 1304.496564 1303.712316 1302.629916 1301.274621 1299.672938 1297.852417 1295.606490 1293.219631 1290.741051 1288.218448 1285.696986 1283.218462 1280.820674 1278.537011 1276.396257 1274.422607 1272.422363 1270.643286 1269.114775 1267.860970 1266.900385 1266.245748 1265.904027 1265.876650 1266.159904 1266.745483 1267.291256 1268.139498 1269.298985 1270.773375 1272.560377 1274.651120 1277.029757 1279.673334 1282.551941 1285.629150 1288.877965 1292.235606 1295.650068 1299.067247 1302.432634 1305.693102 1308.798731 1311.704592 1314.372419 1316.772095 1318.200992 1319.387938 1320.387967 1321.259500 1322.060592 1322.845256 1323.660025 1324.540878 1325.510687 1326.577271 1328.109763 1329.673648 1331.197069 1332.597142 1333.783817 1334.664181 1335.147037 1335.147572 1334.591931 1333.421509 1330.653491 1327.294522 1323.427310 1319.150064 1314.572286 1309.810265 1304.982433 1300.204786 1295.586519 1291.226074 1287.594865 1284.339169 1281.476724 1279.009761 1276.926666 1275.204210 1273.810248 1272.706765 1271.853119 1271.209351 1270.050264 1269.095680 1268.380713 1267.944136 1267.826491 1268.068076 1268.706892 1269.776632 1271.304800 1273.311035 1275.793746 1278.764855 1282.214496 1286.121451 1290.453155 1295.166110 1300.206700 1305.512386 1311.013245 1316.633789 1321.981662 1327.317254 1332.586222 1337.733929 1342.706141 1347.449820 1351.914011 1356.050810 1359.816379 1363.171997 1365.900999 1368.178208 1370.000896 1371.373064 1372.305173 1372.813839 1372.921480 1372.655925 1372.049988 1371.140991 1369.454256 1367.593148 1365.646613 1363.699998 1361.831626 1360.109698 1358.589630 1357.311930 1356.300705 1355.562866 1355.377558 1355.404619 1355.578589 1355.824052 1356.059862 1356.203671 1356.176619 1355.907968 1355.339511 1354.429565 1352.283194 1349.849211 1347.222462 1344.513019 1341.841566 1339.334373 1337.118074 1335.314419 1334.035204 1333.377563 1333.432059 1334.238221 1335.826631 1338.201631 1341.340457 1345.193327 1349.684514 1354.714366 1360.162239 1365.890259 1372.016562 1378.095246 1383.943463 1389.384376 1394.254507 1398.410808 1401.737198 1404.150295 1405.604111 1406.093506 1404.030062 1401.256531 1398.026604 1394.615305 1391.306209 1388.378345 1386.093276 1384.682863 1384.338189 1385.200073 1388.790520 1393.567164 1399.369719 1405.988675 1413.175234 1420.652810 1428.129631 1435.311984 1441.917569 1447.688477 1450.841388 1452.901106 1453.873413 1453.808781 1452.799052 1450.972760 1448.489276 1445.532026 1442.301025 1439.005005 1436.006936 1433.337569 1431.173408 1429.672018 1428.966667 1429.161829 1430.329705 1432.507845 1435.697942 1439.865845 1445.044505 1451.024778 1457.668209 1464.812799 1472.278874 1479.875579 1487.407761 1494.683018 1501.518671 1507.748413 1512.239469 1515.948786 1518.871469 1521.026844 1522.455459 1523.215522 1523.378944 1523.027164 1522.246930 1521.126221 1520.141868 1518.947249 1517.582276 1516.080720 1514.470748 1512.775898 1511.016431 1509.210955 1507.378235 1505.539062 1502.938899 1500.454089 1498.183705 1496.225774 1494.673932 1493.614179 1493.121841 1493.258865 1494.071544 1495.588745 1497.862252 1500.837083 1504.482198 1508.748894 1513.572373 1518.873873 1524.563283 1530.542161 1536.707052 1542.953003 1548.916569 1554.785215 1560.491061 1565.975041 1571.188320 1576.093444 1580.665164 1584.890916 1588.770918 1592.317871 1594.717220 1596.911849 1599.013704 1601.132963 1603.371525 1605.816841 1608.536345 1611.572710 1614.940155 1618.621948 1623.372717 1628.241465 1633.052911 1637.613674 1641.720886 1645.171432 1647.771464 1649.345817 1649.746966 1648.863159 1645.119053 1640.129737 1634.046531 1627.057444 1619.379466 1611.249939 1602.917315 1594.631671 1586.635292 1579.153687 1572.954876 1567.588042 1563.138623 1559.656342 1557.155133 1555.614329 1554.981026 1555.173522 1556.085679 1557.592041 1559.050857 1560.864071 1562.922963 1565.117263 1567.338502 1569.483303 1571.456498 1573.174010 1574.565385 1575.575928 1575.649388 1575.329214 1574.657393 1573.689200 1572.489874 1571.131079 1569.687285 1568.232202 1566.835416 1565.559326 1564.548588 1563.743730 1563.164485 1562.817170 1562.694841 1562.778027 1563.035979 1563.428402 1563.907554 1564.420654 1564.294435 1564.145412 1563.970602 1563.765253 1563.522021 1563.230305 1562.875777 1562.440162 1561.901283 1561.233398 1560.352144 1559.287114 1558.011203 1556.497224 1554.719190 1552.653775 1550.281875 1547.590230 1544.573022 1541.233398 1537.175032 1532.868407 1528.383253 1523.797281 1519.194210 1514.661679 1510.289099 1506.165494 1502.377396 1499.006836 1495.710802 1493.009817 1490.995655 1489.744758 1489.315067 1489.743439 1491.043722 1493.205589 1496.194179 1499.950562 1504.496131 1509.617725 1515.186826 1521.061742 1527.092308 1533.124965 1539.008071 1544.597240 1549.760551 1554.383423 1557.687577 1560.350507 1562.387573 1563.836478 1564.754807 1565.217002 1565.310932 1565.134144 1564.789944 1564.383423 1563.864517 1563.494710 1563.374539 1563.590832 1564.213342 1565.292007 1566.854943 1568.907222 1571.430470 1574.383301 1577.513008 1580.943055 1584.588566 1588.348786 1592.110033 1595.749183 1599.137621 1602.145507 1604.646264 1606.521118 1607.337241 1607.360060 1606.545746 1604.870335 1602.330880 1598.946136 1594.756759 1589.825000 1584.233894 1578.085937 1570.958682 1563.574829 1556.126202 1548.808247 1541.813797 1535.326962 1529.517360 1524.534852 1520.504966 1517.525146 1515.890274 1515.386901 1515.997229 1517.673030 1520.338300 1523.892780 1528.216187 1533.173021 1538.617741 1544.400146 1549.590549 1554.893173 1560.237213 1565.557839 1570.795888 1575.897344 1580.812705 1585.496273 1589.905453 1594.000122 1597.894150 1601.385860 1604.428023 1606.976664 1608.992130 1610.440240 1611.293505 1611.532329 1611.146141 1610.134399 1607.678479 1604.698826 1601.295002 1597.568731 1593.619183 1589.538485 1585.407646 1581.293058 1577.243723 1573.289307 1570.005478 1566.768224 1563.501451 1560.117727 1556.524034 1552.627925 1548.343826 1543.599222 1538.340446 1532.537842 1524.898432 1516.854551 1508.572658 1500.238382 1492.049082 1484.205910 1476.905673 1470.332807 1464.651748 1460.000000 1457.065058 1455.279478 1454.622762 1455.038140 1456.435085 1458.692961 1461.665688 1465.187231 1469.077728 1473.150024 1476.462736 1479.654554 1482.615985 1485.246997 1487.458489 1489.173498 1490.328142 1490.872306 1490.770086 1490.000000 1488.492808 1486.322803 1483.515918 1480.110617 1476.156810 1471.714651 1466.853248 1461.649304 1456.185700 1450.550049 1444.400085 1438.298607 1432.373036 1426.744612 1421.524710 1416.811525 1412.687197 1409.215489 1406.440063 1404.383423 1402.987714 1402.297132 1402.275772 1402.868382 1404.002308 1405.590002 1407.532007 1409.720337 1412.042123 1414.383423 1416.128937 1417.721614 1419.106929 1420.237759 1421.074602 1421.585643 1421.746717 1421.541179 1420.959717 1420.000122 1418.625996 1416.893184 1414.822568 1412.440665 1409.779186 1406.874612 1403.767796 1400.503587 1397.130451 1393.700073 1389.732664 1385.864576 1382.197023 1378.826270 1375.840169 1373.314985 1371.312635 1369.878433 1369.039420 1368.803345 1369.264273 1370.276722 1371.782820 1373.709382 1375.970822 1378.472530 1381.114591 1383.795717 1386.417250 1388.887085 1390.489428 1391.844710 1392.951571 1393.820048 1394.469956 1394.929008 1395.230759 1395.412456 1395.512886 1395.570312 1395.609873 1395.674042 1395.790062 1395.978606 1396.252977 1396.618695 1397.073443 1397.607400 1398.203907 1398.840454 1399.149329 1399.470665 1399.799653 1400.127616 1400.441997 1400.726555 1400.961762 1401.125408 1401.193383 1401.140625 1400.562531 1399.846614 1399.002131 1398.037813 1396.961064 1395.777348 1394.489812 1393.099151 1391.603753 1390.000122 1388.349252 1386.575832 1384.670337 1382.626040 1380.440797 1378.118843 1375.672497 1373.123709 1370.505333 1367.862061 1364.517527 1361.336744 1358.459565 1356.028323 1354.182458 1353.053137 1352.758058 1353.396619 1355.045635 1357.755737 1361.696748 1366.697659 1372.706124 1379.640219 1387.390405 1395.822405 1404.780882 1414.093836 1423.577555 1433.041992 1441.892384 1450.383073 1458.370721 1465.723023 1472.321601 1478.064617 1482.869066 1486.672685 1489.435435 1491.140503 1491.344603 1490.565638 1488.893589 1486.435554 1483.311794 1479.651599 1475.589134 1471.259378 1466.794294 1462.319336 1457.982731 1453.852825 1450.016885 1446.547228 1443.500673 1440.918595 1438.827542 1437.240361 1436.157776 1435.570312 1434.933053 1434.795716 1435.173907 1436.076266 1437.504011 1439.450649 1441.901882 1444.835715 1448.222796 1452.026978 1456.086310 1460.482970 1465.175636 1470.119201 1475.265575 1480.564645 1485.965360 1491.416923 1496.870039 1502.278198 1507.162583 1511.958893 1516.671153 1521.305748 1525.869918 1530.370346 1534.811909 1539.196637 1543.522946 1547.785156 1551.957852 1556.044143 1560.027560 1563.888568 1567.605537 1571.155933 1574.517685 1577.670667 1580.598209 1583.288574 1585.182182 1586.882755 1588.444838 1589.925592 1591.382216 1592.869405 1594.436914 1596.127326 1597.974105 1600.000000 1602.009272 1604.222745 1606.642517 1609.255867 1612.034846 1614.936463 1617.903481 1620.865808 1623.742470 1626.444092 1628.836791 1630.867353 1632.443056 1633.475692 1633.885193 1633.603198 1632.576463 1630.769960 1628.169560 1624.784180 1619.865334 1614.319659 1608.293845 1601.950276 1595.461354 1589.003566 1582.751514 1576.872100 1571.519075 1566.828125 1563.158010 1560.329419 1558.382582 1557.331114 1557.162853 1557.841561 1559.309397 1561.490054 1564.292439 1567.614746 1570.678135 1574.101322 1577.829601 1581.806784 1585.975516 1590.277598 1594.654356 1599.047056 1603.397415 1607.648193 1611.651558 1615.454112 1619.013756 1622.291762 1625.253258 1627.867803 1630.110015 1631.960245 1633.405270 1634.438965 1634.691948 1634.577155 1634.142551 1633.440669 1632.526770 1631.457064 1630.287045 1629.069973 1627.855555 1626.688843 1625.355347 1624.164262 1623.162741 1622.388396 1621.868102 1621.617194 1621.639078 1621.925256 1622.455776 1623.200073 1623.855830 1624.660476 1625.580820 1626.576442 1627.600488 1628.600718 1629.520788 1630.301740 1630.883651 1631.207397 1630.770930 1630.005180 1628.899957 1627.447924 1625.643783 1623.483568 1620.964094 1618.082594 1614.836590 1611.223999 1607.278394 1602.962726 1598.276231 1593.221592 1587.806290 1582.044029 1575.956147 1569.572952 1562.934898 1556.093506 1548.407097 1540.715872 1533.162819 1525.893858 1519.053058 1512.777889 1507.194665 1502.414317 1498.528667 1495.607300 1493.758209 1492.931063 1493.112630 1494.263589 1496.319828 1499.194527 1502.780973 1506.956005 1511.583977 1516.521118 1521.170395 1525.875242 1530.530943 1535.037719 1539.302608 1543.241221 1546.779349 1549.854390 1552.416571 1554.429932 1555.602932 1556.222193 1556.317890 1555.932024 1555.116524 1553.931237 1552.441848 1550.717793 1548.830228 1546.850098 1544.500262 1542.221114 1540.100614 1538.216596 1536.634029 1535.402776 1534.555920 1534.108712 1534.058184 1534.383423 1534.923273 1535.758738 1536.832829 1538.076384 1539.410520 1540.749500 1542.003928 1543.084162 1543.903846 1544.383423 1544.041618 1543.270349 1542.062353 1540.423943 1538.374704 1535.946866 1533.184403 1530.141856 1526.882951 1523.479004 1519.690216 1515.940812 1512.339531 1508.991737 1505.995801 1503.439746 1501.398274 1499.930249 1499.076733 1498.859619 1499.190514 1500.149927 1501.707678 1503.814371 1506.402774 1509.389797 1512.679011 1516.163638 1519.729896 1523.260620 1526.237855 1528.985409 1531.430210 1533.505715 1535.153037 1536.321939 1536.971700 1537.071835 1536.602657 1535.555664 1533.721970 1531.345889 1528.469821 1525.144571 1521.427666 1517.381643 1513.072320 1508.567114 1503.933433 1499.237183 1494.116774 1489.091323 1484.248714 1479.666127 1475.407185 1471.519602 1468.033416 1464.959873 1462.291016 1460.000000 1458.157029 1456.578015 1455.178938 1453.866107 1452.540239 1451.100848 1449.450775 1447.500701 1445.173473 1442.408081 1438.428676 1434.014064 1429.228179 1424.152125 1418.880713 1413.518595 1408.176130 1402.965130 1397.994647 1393.366943 1389.153494 1385.452622 1382.327713 1379.823520 1377.964583 1376.754378 1376.175213 1376.188887 1376.738078 1377.748413 1379.059267 1380.651265 1382.422183 1384.265010 1386.071769 1387.737456 1389.163959 1390.263819 1390.963694 1391.207397 1390.209184 1388.766966 1386.948095 1384.834312 1382.517424 1380.094710 1377.664232 1375.320240 1373.148825 1371.223999 1369.759438 1368.626138 1367.832407 1367.367431 1367.201860 1367.289154 1367.567645 1367.963222 1368.392554 1368.766724 1368.698121 1368.423403 1367.883956 1367.027730 1365.811430 1364.202521 1362.180987 1359.740787 1356.890930 1353.656128 1349.542407 1345.185431 1340.698874 1336.203787 1331.823999 1327.681450 1323.891600 1320.559093 1317.773807 1315.607422 1314.172718 1313.429299 1313.375753 1313.986797 1315.214025 1316.987444 1319.217760 1321.799327 1324.613667 1327.533447 1330.154374 1332.642239 1334.890863 1336.799560 1338.276008 1339.238981 1339.620831 1339.369671 1338.451183 1336.849976 1334.084194 1330.705566 1326.797435 1322.456766 1317.790285 1312.910418 1307.931191 1302.964216 1298.114899 1293.479004 1289.126694 1285.139281 1281.569113 1278.450444 1275.798867 1273.611446 1271.867539 1270.530255 1269.548516 1268.859619 1268.246047 1267.792082 1267.430383 1267.093331 1266.715888 1266.238411 1265.609334 1264.787598 1263.744760 1262.466675 1260.354512 1258.076724 1255.714881 1253.359320 1251.104862 1249.046366 1247.274283 1245.870389 1244.903823 1244.427612 1244.623333 1245.343040 1246.565340 1248.247467 1250.326312 1252.720199 1255.331352 1258.048959 1260.752738 ) qmult=(57.416107 54.803284 52.271155 49.899332 47.762036 45.925460 44.445381 43.365085 42.713692 42.504942 42.736481 43.807232 45.231026 46.924763 48.796394 50.749073 52.685446 54.511928 56.142796 57.503947 58.536179 58.565934 58.256319 57.656412 56.829144 55.847495 54.790317 53.737934 52.767717 51.949826 51.343277 51.777512 52.427544 53.238543 54.144170 55.070334 55.939310 56.674020 57.202323 57.461101 57.399994 56.304642 54.897841 53.238063 51.397080 49.456511 47.503952 45.628846 43.918247 42.452667 41.302155 41.095758 41.249631 41.738058 42.521134 43.546905 44.753930 46.074160 47.436038 48.767675 50.000000 50.770683 51.350781 51.720105 51.867712 51.791829 51.499444 51.005595 50.332394 49.507822 48.564362 47.715956 46.805262 45.855056 44.888662 43.929442 43.000298 42.123190 41.318670 40.605447 39.999985 39.410496 38.962174 38.671220 38.549250 38.602579 38.831651 39.230638 39.787234 40.482666 41.291931 42.516246 43.760643 44.958490 46.043806 46.954305 47.634348 48.037681 48.129856 47.890226 47.313431 45.880299 44.192316 42.335355 40.404419 38.499208 36.719471 35.160331 33.907753 33.034348 32.595673 33.397428 34.617064 36.182425 38.005932 39.989063 42.027257 44.015012 45.851005 47.443002 48.712372 48.846821 48.621696 48.079536 47.278658 46.289674 45.191515 44.067147 42.999139 42.065282 41.334442 41.610766 42.122197 42.831152 43.688604 44.637035 45.613745 46.554350 47.396345 48.082558 48.564362 48.151194 47.528659 46.740630 45.839895 44.885126 43.937575 43.057659 42.301567 41.718045 41.345505 41.987711 42.811499 43.749771 44.727835 45.667605 46.491991 47.129269 47.517262 47.607139 47.366669 45.914521 44.200266 42.322832 40.392904 38.527361 36.843391 35.452522 34.454816 33.933462 33.949997 35.624223 37.787588 40.330682 43.125570 46.032078 48.904549 51.598826 53.979147 55.924706 57.335587 57.023274 56.153575 54.804162 53.074125 51.078277 48.940845 46.788814 44.745198 42.922523 41.416794 41.427548 41.780651 42.405238 43.212210 44.099424 44.957465 45.675742 46.148668 46.281644 45.996628 44.405665 42.381629 39.987753 37.307721 34.442006 31.503515 28.612735 25.892547 23.462913 21.435638 20.380341 19.864569 19.910781 20.522528 21.684543 23.363427 25.508911 28.055642 30.925424 34.029846 37.339854 40.685427 43.960073 47.060122 49.888330 52.357276 54.392441 55.934860 56.943270 57.395660 56.934940 55.964240 54.550530 52.775586 50.732310 48.520682 46.243517 44.002159 41.892288 39.999985 38.899535 38.103235 37.609537 37.402576 37.453874 37.724487 38.167494 38.730720 39.359591 39.999985 40.283844 40.511243 40.670037 40.754095 40.763092 40.702035 40.580569 40.412082 40.212665 39.999985 39.962398 39.931411 39.909048 39.896538 39.894286 39.901902 39.918262 39.941613 39.969711 39.999985 40.045496 40.086696 40.119854 40.141830 40.150347 40.144244 40.123688 40.090339 40.047462 39.999985 39.974605 39.957740 39.957338 39.982780 40.044726 40.154888 40.325742 40.570184 40.901132 41.331100 41.862645 42.515636 43.299359 44.220774 45.284033 46.490054 47.836151 49.315765 50.918277 52.628952 54.549106 56.525878 58.523405 60.504048 62.429573 64.262364 65.966604 67.509413 68.861883 69.999985 70.817347 71.397242 71.741027 71.855746 71.753601 71.451277 70.969135 70.330314 69.559774 68.683319 67.873553 66.995541 66.060317 65.077977 64.057823 63.008535 61.938378 60.855407 59.767658 58.683319 57.511990 56.369686 55.273479 54.239632 53.282962 52.416217 51.649490 50.989687 50.440085 50.000000 49.831573 49.744511 49.712311 49.706524 49.698031 49.658346 49.560910 49.382308 49.103387 48.710220 48.121551 47.415935 46.604642 45.704983 44.739741 43.736407 42.726236 41.743151 40.822542 39.999985 39.284888 38.735463 38.382267 38.250888 38.360748 38.724100 39.345221 40.219871 41.335024 42.668900 44.533451 46.520735 48.558418 50.572301 52.489599 54.242177 55.769630 57.022086 57.962602 58.569077 58.267032 57.683431 56.891582 55.974587 55.021019 54.120372 53.358443 52.812858 52.548911 52.615891 53.817602 55.323553 57.058338 58.932294 60.846010 62.695245 64.376050 65.789904 66.848638 67.478973 66.975379 66.013127 64.635901 62.905518 60.898947 58.704764 56.419164 54.141702 51.970916 50.000000 48.804818 47.920476 47.362154 47.131838 47.218904 47.601121 48.246006 49.112487 59.991642 70.870797 81.749951 92.629106 103.508261 114.387416 125.266570 136.145725 147.024880 158.375844 158.645804 158.695648 158.604467 158.261538 157.654164 156.774743 155.620941 154.195751 152.507422 150.569257 148.399299 146.019897 143.436710 140.701019 137.846222 134.907218 131.919504 128.918282 125.937581 123.009445 120.163186 117.424744 115.018399 112.743232 110.596179 108.571757 106.663181 104.863494 103.166646 101.568463 100.067475 98.665543 97.077023 95.626937 94.351818 93.288284 92.470877 91.929864 91.689106 91.764086 92.160182 92.871277 94.311575 95.979834 97.796920 99.676151 101.526563 103.256385 104.776583 106.004359 106.866465 107.302231 106.993644 106.209346 104.961460 103.278514 101.204268 98.796055 96.122695 93.262041 90.298255 87.318893 84.514362 81.857503 79.420210 77.267488 75.455481 74.029757 73.023905 72.458473 72.340298 72.662231 73.598037 74.902956 76.514692 78.362083 80.367812 82.451293 84.531619 86.530476 88.374929 89.999985 91.125237 91.952884 92.471649 92.682087 92.595856 92.234634 91.628721 90.815395 89.837094 88.739487 87.822536 86.857370 85.867774 84.876420 83.904727 82.972798 82.099425 81.302130 80.597245 79.999985 79.425526 78.994806 78.727871 78.642577 78.754011 79.073921 79.610208 80.366456 81.341570 82.529495 84.075377 85.793377 87.649696 89.607558 91.628415 93.673191 95.703493 97.682779 99.577416 101.357620 102.862520 104.219077 105.423806 106.477481 107.384382 108.151434 108.787281 109.301332 109.702829 109.999985 110.515117 110.909846 111.160091 111.242253 111.134803 110.819858 110.284670 109.522947 108.535952 107.333313 105.584791 103.695867 101.730575 99.757041 97.844636 96.061018 94.469181 93.124633 92.072802 91.346786 91.383663 91.732636 92.347810 93.171879 94.138779 95.176658 96.211064 97.168224 97.978300 98.578506 98.803753 98.737061 98.361082 97.672970 96.684832 95.423649 93.930680 92.260353 90.478666 88.661148 86.670021 84.829344 83.245496 82.020879 81.249510 81.012803 81.375694 82.383243 84.057864 86.397293 90.021926 94.174589 98.723488 103.520144 108.405260 113.214955 117.787189 121.968101 125.618061 128.617203 130.246422 131.116859 131.242665 130.663836 129.443580 127.664913 125.426623 122.838765 120.017860 117.081970 114.571196 112.128705 109.815633 107.682432 105.767958 104.098996 102.690211 101.544511 100.653788 100.000000 99.536353 99.252520 99.111116 99.071067 99.089508 99.123692 99.132852 99.079953 98.933276 98.667786 98.238250 97.666578 96.955376 96.116113 95.168777 94.141216 93.068180 91.990097 90.951618 89.999985 89.147898 88.479581 88.042290 87.878363 88.023293 88.503959 89.337099 90.528089 92.070061 93.943420 96.457815 99.198182 102.080681 105.014929 107.907440 110.665197 113.199210 115.427940 117.280468 118.699280 119.238598 119.312476 118.947387 118.184206 117.075883 115.684729 114.079405 112.331763 110.513634 108.693710 107.381380 106.145160 104.992660 103.924132 102.933579 102.010124 101.139559 100.306007 99.493608 98.688156 97.606644 96.538280 95.503611 94.526288 93.632116 92.847962 92.200545 91.715182 91.414531 91.317383 91.695134 92.275838 93.040299 93.965148 95.023888 96.188026 97.428225 98.715460 100.022109 101.322952 102.433942 103.512952 104.559386 105.575566 106.565967 107.536373 108.492966 109.441399 110.385911 111.328506 112.524467 113.691393 114.800580 115.822228 116.726812 117.486471 118.076381 118.476038 118.670417 118.650925 118.225969 117.608278 116.827019 115.916851 114.916511 113.867249 112.811165 111.789492 110.840919 109.999985 109.477527 109.097603 108.860088 108.758471 108.780367 108.908227 109.120207 109.391186 109.693874 109.999985 110.346810 110.637681 110.842975 110.937203 110.900296 110.718684 110.386145 109.904381 109.283300 108.540970 107.540685 106.491238 105.444823 104.456714 103.582881 102.877536 102.390661 102.165649 102.237110 102.628952 103.650774 104.977170 106.568422 108.373871 110.333729 112.381196 114.444800 116.450874 118.326097 120.000000 121.246048 122.182216 122.772913 122.991666 122.821581 122.255525 121.296041 119.954988 118.252962 116.218491 114.009963 111.534838 108.829343 105.934504 102.895439 99.760565 96.580746 93.408366 90.296372 87.297287 84.497417 81.907554 79.570212 77.524028 75.803125 74.436540 73.447716 72.854076 72.666683 72.889984 73.527230 74.563205 75.981527 77.759241 79.867098 82.269934 84.927145 87.793261 90.818595 93.949982 97.177156 100.392837 103.534926 106.541955 109.354309 111.915406 114.172838 116.079435 117.594234 118.683334 119.471960 119.778927 119.583031 118.873708 117.651914 115.930710 113.735533 111.104125 108.086089 104.742081 100.833439 96.773426 92.672336 88.641484 84.789231 81.217061 78.015861 75.262513 73.016953 71.319794 70.829317 70.850856 71.308627 72.112428 73.162352 74.353809 75.582648 76.750192 77.767967 78.561966 78.394373 77.970341 77.332005 76.537432 75.657055 74.769585 73.957569 73.302788 72.881673 72.760941 73.685693 74.939785 76.484342 78.266834 80.223572 82.282636 84.367097 86.398420 88.299898 89.999985 90.988558 91.699256 92.128558 92.282759 92.176858 91.833156 91.279599 90.547974 89.672012 88.685516 87.988071 87.208929 86.342864 85.383074 84.322264 83.153812 81.872969 80.478015 78.971346 77.360397 75.492536 73.567858 71.625489 69.709032 67.865372 66.143316 64.592090 63.259758 62.191608 61.428558 61.128247 61.184734 61.607627 62.398536 63.550938 65.050225 66.873941 68.992204 71.368293 73.959396 76.799033 79.747020 82.741483 85.719522 88.618886 91.379609 93.945566 96.265900 98.296289 100.000000 101.259870 102.152739 102.675714 102.834253 102.641457 102.117169 101.286915 100.180730 98.831909 97.275742 95.758573 94.087761 92.280623 90.354438 88.326759 86.215755 84.040567 81.821622 79.580913 77.342178 74.978290 72.682301 70.495388 68.458300 66.610119 64.987009 63.620985 62.538762 61.760711 61.299988 61.381547 61.763687 62.417319 63.307447 64.394650 65.636665 66.990042 68.411778 69.860912 71.299988 72.630906 73.898500 75.087949 76.190972 77.205811 78.136965 78.994691 79.794290 80.555210 81.299988 82.042125 82.817691 83.652251 84.569487 85.589877 86.729480 87.998850 89.402146 90.936451 92.591354 94.535757 96.541360 98.560655 100.541958 102.431403 104.175043 105.721004 107.021616 108.035431 108.729080 108.983375 108.889801 108.455205 107.697854 106.647148 105.342990 103.834827 102.180389 100.444160 98.695633 96.925605 95.294770 93.882570 92.764609 92.010136 91.679696 91.823028 92.477279 93.665616 95.396271 98.122248 101.322743 104.923511 108.841698 112.989794 117.279699 121.626740 125.953485 130.193193 34.292770 37.614348 40.789942 43.866522 46.902719 49.964905 53.122905 56.445501 59.995928 63.827532 67.979797 73.081913 78.475831 84.093354 89.850218 95.649005 101.382583 106.937933 112.200238 117.057087 121.402634 124.927290 127.784531 129.927332 131.325969 131.968988 131.863614 131.035616 129.528608 127.402812 124.733330 121.422005 117.766306 113.886647 109.905727 105.944230 102.116587 98.526951 95.265533 92.405418 89.999992 88.681592 87.808457 87.318706 87.134825 87.168179 87.323878 87.505822 87.621704 87.587799 87.333328 86.164799 84.742295 83.104454 81.305771 79.413593 77.504572 75.660728 73.965286 72.498454 71.333313 71.031709 71.097359 71.521349 72.281399 73.342978 74.660866 76.181090 77.843169 79.582575 81.333321 82.951638 84.464040 85.821436 86.981852 87.911975 88.588390 88.998492 89.141019 89.026201 88.675491 87.875726 86.933211 85.917383 84.901412 83.958892 83.160481 82.570628 82.244512 82.225290 82.541801 83.683809 85.129348 86.817977 88.677062 90.625092 92.575350 94.439760 96.132789 97.575246 98.697830 99.067947 99.054599 98.664875 97.920588 96.857031 95.521261 93.969964 92.267004 90.480726 88.681129 87.069339 85.564763 84.215382 83.061949 82.136560 81.461522 81.048545 80.898295 81.000315 81.333328 82.136357 83.076889 84.084797 85.086772 86.009666 86.783853 87.346454 87.644329 87.636697 87.297287 86.155828 84.718160 83.045400 81.210466 79.294620 77.383677 75.564036 73.918675 72.523274 71.442612 71.230768 71.374659 71.849546 72.616583 73.624877 74.813995 76.116797 77.462488 78.779772 79.999992 80.804519 81.417546 81.815346 81.983842 81.918829 81.625833 81.119641 80.423510 79.568100 78.590157 77.562333 76.493748 75.427627 74.407181 73.473993 72.666468 72.018377 71.557556 71.304804 71.273010 71.673943 72.278635 73.057169 73.973400 74.986648 76.053516 77.129797 78.172362 79.140980 79.999992 80.482762 80.824204 81.028987 81.107773 81.076208 80.953732 80.762240 80.524684 80.263652 79.999992 80.007358 80.021524 80.030913 80.021277 79.976626 79.880246 7