New loadshape.LS_PhaseA npts=1440 sinterval=60 pmult=(1495.803711 1507.265886 1518.147408 1528.067258 1536.668342 1543.630495 1548.682600 1551.613391 1552.280553 1550.617766 1546.639404 1538.473478 1528.432881 1516.933707 1504.442784 1491.458725 1478.491971 1466.044550 1454.590278 1444.556087 1436.305176 1431.816511 1429.444839 1429.152948 1430.820908 1434.253911 1439.192705 1445.326171 1452.305556 1459.759820 1467.311523 1473.102744 1478.413283 1483.056118 1486.877492 1489.759913 1491.623906 1492.428534 1492.170731 1490.883533 1488.633301 1485.506610 1481.631364 1477.150727 1472.223237 1467.017007 1461.703816 1456.453277 1451.427259 1446.774714 1442.627075 1438.899939 1435.888938 1433.668301 1432.281971 1431.742190 1432.029170 1433.091855 1434.849749 1437.195765 1440.000000 1443.055233 1446.267006 1449.471181 1452.501466 1455.195454 1457.400676 1458.980468 1459.819475 1459.828582 1458.949097 1456.615408 1453.426709 1449.473867 1444.878323 1439.788036 1434.372601 1428.817690 1423.318976 1418.075718 1413.284180 1408.226609 1404.048932 1400.973770 1399.187243 1398.829506 1399.986765 1402.685126 1406.886547 1412.487127 1419.317871 1429.456906 1440.121850 1450.791949 1460.934062 1470.027160 1477.586741 1483.188219 1486.488329 1487.243667 1485.325562 1475.621329 1463.794972 1450.514723 1436.518121 1422.575360 1409.451257 1397.867364 1388.465754 1381.775952 1378.186401 1384.158643 1392.971721 1403.983408 1416.432996 1429.480680 1442.250313 1453.873798 1463.535312 1470.513562 1474.220337 1466.934134 1456.350799 1443.034618 1427.687670 1411.113485 1394.176745 1377.760706 1362.724062 1349.859003 1339.852173 1339.550060 1342.487235 1348.349629 1356.691821 1366.963774 1378.541632 1390.761266 1402.953115 1414.476904 1424.754761 1427.491426 1428.632318 1428.411727 1427.150199 1425.232881 1423.085144 1421.146539 1419.844244 1419.567135 1420.641602 1427.340103 1435.423074 1444.596876 1454.492230 1464.681974 1474.701457 1484.070718 1492.317566 1499.000629 1503.731445 1503.066694 1500.184251 1495.212265 1488.357068 1479.893261 1470.151479 1459.504338 1448.351104 1437.101667 1426.160400 1416.989008 1408.757125 1401.678766 1395.921333 1391.602094 1388.786416 1387.487764 1387.669390 1389.247637 1392.096680 1395.772327 1400.394870 1405.773300 1411.699646 1417.956292 1424.323521 1430.587028 1436.545184 1442.015797 1446.842163 1449.880997 1452.143211 1453.656370 1454.475656 1454.678769 1454.360171 1453.624962 1452.582620 1451.340880 1450.000000 1449.407453 1448.809154 1448.195014 1447.541149 1446.812683 1445.967167 1444.958481 1443.740981 1442.273725 1440.524536 1437.038434 1433.368626 1429.643869 1425.996428 1422.555474 1419.440562 1416.755475 1414.582690 1412.978725 1411.970581 1412.785094 1414.049967 1415.596935 1417.241473 1418.792657 1420.063465 1420.881098 1421.096903 1420.595467 1419.302490 1415.004962 1410.099154 1404.838800 1399.507040 1394.402956 1389.827407 1386.068719 1383.388820 1382.010342 1382.105225 1385.449598 1390.279879 1396.436683 1403.706723 1411.832628 1420.524467 1429.472522 1438.360824 1446.880942 1454.745483 1460.192245 1464.655214 1468.100056 1470.536973 1472.018466 1472.635668 1472.513435 1471.804366 1470.681992 1469.333374 1467.641657 1466.127018 1464.996790 1464.438918 1464.613608 1465.645981 1467.620046 1470.574195 1474.498420 1479.333374 1485.967831 1493.171498 1500.670077 1508.165784 1515.350625 1521.920268 1527.587995 1532.098203 1535.238929 1536.852905 1534.752048 1531.186985 1526.376896 1520.593301 1514.147849 1507.378706 1500.636071 1494.267372 1488.602685 1483.940918 1481.916322 1481.229897 1481.909768 1483.930804 1487.217935 1491.651195 1497.072254 1503.292136 1510.099821 1517.271362 1523.087723 1528.947542 1534.761339 1540.444155 1545.914727 1551.094481 1555.906490 1560.274515 1564.122255 1567.372925 1570.795508 1573.394730 1575.026610 1575.559242 1574.879158 1572.897534 1569.555968 1564.831580 1558.741192 1551.344360 1540.994141 1529.737288 1517.905963 1505.853056 1493.938651 1482.516261 1471.919343 1462.448575 1454.360391 1447.857178 1444.675592 1443.157682 1443.179239 1444.563905 1447.093863 1450.521993 1454.584983 1459.016862 1463.562424 1467.989990 1470.041656 1471.805684 1473.347463 1474.767005 1476.191501 1477.766704 1479.647516 1481.988193 1484.932551 1488.604614 1493.577456 1499.385873 1506.011591 1513.396998 1521.445059 1530.020821 1538.954512 1548.046145 1557.071518 1565.789429 1574.655283 1582.662694 1589.513342 1594.934887 1598.694347 1600.610557 1600.565206 1598.511976 1594.483350 1588.594727 1577.779711 1565.856312 1553.445127 1541.199099 1529.775194 1519.805701 1511.870241 1506.469575 1504.002231 1504.744873 1513.035074 1524.313600 1538.086734 1553.758856 1570.661648 1588.085980 1605.315234 1621.658719 1636.483876 1649.245972 1654.057510 1656.545157 1656.999075 1655.807232 1653.430356 1650.374121 1647.159759 1644.294360 1642.242135 1641.397827 1646.801596 1653.497456 1661.172901 1669.436309 1677.838873 1685.899219 1693.129664 1699.062995 1703.278640 1705.427124 1700.588824 1693.683084 1685.059097 1675.144636 1664.425241 1653.421150 1642.662922 1632.666736 1623.910346 1616.810669 1614.832053 1614.812658 1616.633101 1620.092550 1624.921198 1630.795356 1637.354524 1644.219733 1651.012415 1657.373047 1660.210863 1662.264597 1663.550343 1664.129170 1664.100823 1663.595979 1662.767446 1661.780713 1660.804270 1660.000122 1661.022787 1662.356600 1663.975269 1665.835125 1667.879386 1670.043141 1672.258789 1674.461670 1676.595584 1678.617920 1678.491224 1678.396523 1678.515771 1679.033407 1680.125958 1681.951750 1684.641166 1688.287860 1692.941330 1698.601196 1706.936180 1715.969134 1725.398768 1734.892037 1744.098490 1752.665549 1760.254125 1766.553982 1771.298227 1774.276367 1772.615643 1769.211080 1764.295615 1758.155799 1751.117363 1743.529510 1735.748580 1728.121741 1720.971342 1714.580566 1711.518342 1709.417328 1708.191590 1707.708304 1707.798466 1708.269106 1708.916440 1709.539385 1709.952820 1710.000000 1706.543893 1702.793549 1698.976143 1695.343699 1692.158997 1689.680766 1688.148806 1687.769661 1688.703475 1691.052612 1697.092385 1704.352223 1712.539466 1721.310612 1730.285917 1739.065611 1747.247127 1754.442667 1760.296451 1764.500977 1764.571652 1762.774966 1759.204461 1754.019151 1747.435527 1739.717721 1731.166206 1722.105463 1712.871062 1703.796631 1695.898939 1688.708222 1682.424929 1677.211618 1673.188905 1670.432883 1668.974037 1668.797651 1669.845651 1672.019775 1674.483399 1677.836210 1681.945214 1686.651842 1691.775712 1697.119125 1702.472185 1707.618448 1712.340970 1716.428589 1719.940803 1722.419771 1723.688124 1723.601056 1722.052759 1718.981923 1714.376104 1708.274739 1700.770666 1692.010010 1680.522934 1668.360628 1655.945154 1643.715933 1632.112756 1621.558725 1612.443722 1605.108996 1599.833436 1596.822021 1597.785755 1601.034058 1606.381800 1613.570885 1622.282277 1632.150102 1642.777302 1653.752229 1664.665585 1675.127075 1682.952502 1689.824974 1695.644107 1700.359075 1703.966556 1706.507048 1708.059771 1708.736380 1708.673789 1708.026367 1707.061204 1705.824993 1704.469157 1703.133338 1701.939233 1700.985303 1700.342544 1700.051440 1700.120232 1700.524536 1701.414425 1702.483679 1703.604300 1704.629324 1705.399723 1705.751985 1705.526099 1704.573636 1702.765637 1700.000000 1695.548415 1690.101321 1683.724040 1676.519753 1668.627428 1660.218564 1651.492812 1642.672603 1633.996898 1625.714233 1616.591224 1608.473803 1601.713580 1596.625131 1593.470603 1592.445901 1593.669033 1597.171106 1602.890428 1610.670044 1623.568543 1637.665121 1652.272617 1666.671612 1680.143073 1692.001417 1701.626705 1708.494692 1712.203509 1712.495850 1703.271871 1691.117622 1676.764566 1661.048565 1644.868545 1629.142635 1614.763517 1602.554775 1593.229948 1587.355957 1591.466767 1599.080238 1609.678928 1622.592846 1637.033250 1652.131119 1666.978725 1680.672667 1692.356649 1701.262329 1700.817241 1696.979973 1689.919568 1679.938228 1667.452021 1652.967563 1637.055683 1620.323208 1603.384022 1586.830566 1575.123717 1564.476656 1554.956629 1546.566973 1539.255355 1532.924354 1527.443807 1522.664294 1518.431069 1514.597778 1507.301832 1500.508743 1494.465527 1489.424944 1485.630570 1483.301686 1482.618650 1483.709456 1486.638107 1491.395386 1501.492541 1512.855363 1524.942344 1537.174548 1548.961919 1559.730414 1568.948892 1576.154663 1580.976665 1583.155273 1577.230938 1568.985826 1558.993768 1547.910678 1536.440745 1525.300745 1515.183921 1506.724882 1500.466965 1496.833374 1501.733727 1509.175743 1518.654555 1529.552829 1541.173335 1552.774894 1563.610217 1572.964073 1580.190241 1584.745728 1580.106470 1572.661556 1562.821875 1551.114677 1538.155686 1524.617761 1511.197429 1498.580642 1487.409139 1478.248779 1476.004923 1476.179883 1478.607081 1483.012291 1489.030083 1496.223803 1504.108236 1512.174023 1519.912813 1526.842163 1529.097851 1530.050394 1529.699152 1528.107071 1525.393842 1521.726961 1517.311137 1512.376537 1507.166365 1501.924316 1498.498539 1495.339463 1492.495252 1489.991959 1487.835273 1486.013233 1484.499712 1483.258475 1482.247571 1481.423828 1478.956158 1476.755242 1474.941676 1473.628913 1472.915961 1472.880468 1473.572493 1475.009287 1477.171353 1480.000000 1485.246559 1490.770219 1496.248779 1501.349052 1505.742796 1509.122815 1511.218595 1511.810823 1510.744186 1507.937866 1500.055578 1490.804715 1480.628236 1470.016803 1459.485535 1449.549706 1440.700345 1433.380706 1427.964523 1424.736938 1427.064969 1431.554800 1437.895011 1445.686070 1454.459636 1463.700544 1472.870604 1481.433293 1488.878371 1494.745483 1495.506974 1494.277174 1491.112606 1486.150128 1479.597882 1471.723779 1462.842058 1453.298440 1443.454507 1433.671875 1425.747738 1418.417766 1411.841312 1406.141564 1401.404096 1397.676893 1394.971756 1393.266970 1392.511039 1392.627319 1392.516653 1393.160048 1394.517757 1396.535591 1399.145496 1402.266426 1405.805538 1409.659719 1413.717427 1417.860840 1422.094731 1426.159311 1429.923158 1433.260820 1436.056473 1438.207448 1439.627526 1440.249886 1440.029595 1438.945557 1436.283154 1432.851632 1428.763841 1424.149207 1419.148367 1413.907590 1408.573184 1403.286072 1398.176742 1393.360718 1389.275249 1385.626069 1382.436885 1379.710121 1377.428495 1375.557328 1374.047469 1372.838706 1371.863502 1371.050903 1369.416541 1367.886464 1366.474970 1365.196556 1364.063723 1363.084813 1362.262009 1361.589598 1361.052620 1360.625977 1360.757527 1360.877394 1360.891600 1360.703598 1360.218764 1359.349045 1358.017577 1356.163089 1353.743900 1350.741333 1346.053695 1340.918466 1335.486803 1329.925188 1324.408393 1319.112170 1314.205943 1309.845781 1306.167903 1303.282959 1301.969699 1301.516804 1301.878971 1302.981907 1304.726459 1306.993643 1309.650353 1312.555530 1315.566521 1318.545410 1320.115314 1321.522023 1322.775204 1323.895002 1324.908440 1325.845589 1326.735699 1327.603500 1328.465839 1329.328857 1330.893809 1332.371024 1333.668442 1334.687879 1335.329994 1335.499629 1335.111300 1334.094609 1332.399335 1330.000000 1325.924072 1321.266738 1316.173054 1310.810365 1305.362649 1300.024279 1294.993409 1290.465201 1286.625111 1283.642456 1281.644468 1280.769721 1281.108430 1282.715706 1285.608956 1289.766425 1295.126950 1301.590927 1309.022505 1317.252930 1326.186229 1335.494701 1344.932559 1354.244784 1363.175037 1371.473769 1378.906262 1385.260362 1390.353648 1394.039795 1395.368179 1395.197594 1393.584462 1390.625138 1386.451367 1381.224813 1375.130856 1368.371889 1361.160323 1353.711548 1346.199327 1338.862193 1331.888711 1325.446074 1319.675507 1314.688667 1310.565148 1307.351142 1305.059305 1303.669800 1303.472905 1304.026005 1305.201093 1306.855635 1308.840081 1311.005610 1313.211792 1315.333870 1317.269384 1318.943848 1318.946003 1318.754703 1318.510114 1318.374037 1318.521205 1319.129954 1320.372639 1322.406165 1325.363019 1329.343140 1334.932221 1341.571362 1349.186271 1357.658591 1366.828457 1376.498652 1386.440201 1396.399284 1406.105218 1415.279297 1423.830185 1431.296808 1437.417287 1441.960857 1444.737741 1445.608021 1444.489172 1441.361937 1436.274291 1429.343262 1418.813812 1407.039159 1394.486958 1381.656393 1369.058472 1357.195833 1346.542746 1337.526063 1330.507785 1325.769897 1325.259414 1327.155146 1331.298867 1337.444506 1345.269543 1354.389033 1364.371735 1374.757767 1385.077140 1394.868530 1402.234430 1408.379308 1413.088362 1416.202435 1417.621572 1417.306721 1415.279580 1411.620654 1406.465617 1400.000122 1392.421415 1384.024878 1375.105734 1365.977179 1356.960356 1348.374184 1340.525323 1333.698564 1328.147913 1324.088623 1321.073481 1319.886196 1320.640709 1323.387344 1328.108880 1334.718754 1343.061518 1352.915615 1363.998460 1375.973755 1390.013097 1404.027238 1417.456521 1429.751487 1440.395982 1448.929583 1454.968492 1458.224123 1458.518615 1455.796631 1446.285313 1434.361897 1420.673239 1405.947115 1390.960517 1376.506147 1363.358366 1352.239883 1343.790421 1338.538574 1340.883921 1346.716498 1355.790362 1367.732616 1382.064056 1398.223588 1415.595404 1433.537816 1451.412630 1468.613892 1480.648283 1491.342221 1500.650019 1508.600137 1515.286341 1520.856420 1525.499000 1529.429116 1532.873188 1536.054077 1541.438961 1546.741117 1551.914238 1556.888458 1561.575647 1565.875875 1569.684695 1572.900917 1575.434471 1577.213989 1576.276108 1574.690588 1572.631851 1570.291299 1567.869005 1565.565013 1563.570584 1562.059744 1561.181458 1561.052734 1562.585200 1564.910808 1567.956708 1571.614569 1575.745680 1580.187192 1584.759293 1589.273013 1593.538409 1597.372803 1599.721812 1601.405920 1602.380068 1602.623718 1602.140801 1600.958924 1599.127913 1596.717739 1593.815929 1590.524536 1586.787280 1582.906448 1579.020804 1575.267722 1571.778603 1568.674577 1566.062616 1564.032185 1562.652513 1561.970581 1561.885180 1562.531222 1563.894551 1565.937083 1568.598030 1571.795887 1575.431125 1579.389506 1583.545908 1587.768555 1591.824228 1595.692236 1599.255284 1602.405840 1605.049790 1607.109736 1608.527803 1609.267879 1609.317150 1608.686890 1606.093298 1603.022197 1599.659718 1596.196502 1592.817538 1589.692266 1586.965370 1584.748631 1583.114202 1582.089600 1583.536263 1585.348216 1587.258189 1588.975827 1590.203079 1590.650192 1590.051650 1588.181397 1584.866695 1580.000000 1569.987965 1558.739089 1546.670173 1534.241519 1521.934644 1510.229059 1499.579068 1490.391526 1483.005463 1477.674438 1478.391844 1481.036914 1485.231803 1490.526240 1496.421439 1502.396062 1507.933147 1512.546921 1515.808370 1517.368530 1512.163440 1505.286640 1497.116070 1488.107255 1478.768858 1469.636056 1461.242880 1454.094625 1448.641488 1445.254517 1448.339832 1453.561734 1460.617524 1469.117729 1478.606526 1488.584876 1498.535409 1507.948030 1516.345210 1523.305908 1524.472841 1523.961784 1521.956029 1518.712753 1514.547496 1509.816408 1504.897027 1500.168370 1495.991177 1492.689087 1492.747209 1493.954260 1496.254835 1499.530950 1503.608622 1508.266723 1513.247751 1518.270075 1523.041176 1527.271362 1529.429412 1530.644678 1530.813893 1529.870433 1527.786798 1524.575866 1520.290913 1515.024385 1508.905473 1502.096558 1494.210436 1486.084202 1477.995843 1470.227401 1463.054602 1456.736684 1451.506734 1447.562888 1445.060679 1444.106812 1445.231792 1447.914205 1452.056174 1457.509443 1464.080855 1471.539345 1479.624217 1488.054412 1496.538481 1504.784912 1512.001184 1518.485966 1524.047896 1528.527256 1531.800753 1533.785259 1534.440404 1533.769944 1531.821834 1528.687012 1523.767674 1518.020838 1511.705116 1505.097010 1498.480258 1492.134986 1486.327024 1481.297739 1477.254722 1474.363647 1472.991237 1472.927837 1474.160515 1476.621407 1480.189690 1484.695349 1489.924625 1495.626978 1501.523363 1507.315552 1512.711412 1517.394391 1521.068402 1523.459380 1524.325577 1523.467078 1520.734222 1516.034619 1509.338511 1500.682251 1488.588127 1474.939656 1460.098351 1444.466988 1428.474251 1412.558606 1397.152007 1382.663978 1369.466662 1357.881348 1349.835416 1343.706218 1339.469909 1337.040024 1336.275462 1336.990276 1338.964821 1341.957802 1345.718687 1350.000000 1352.314494 1354.903159 1357.772340 1360.943936 1364.449083 1368.321213 1372.588896 1377.268810 1382.359227 1387.834351 1395.267098 1402.804928 1410.199099 1417.186809 1423.501619 1428.884472 1433.094863 1435.921719 1437.193556 1436.787476 1432.607470 1426.851766 1419.741766 1411.541637 1402.546636 1393.070484 1383.432263 1373.943318 1364.894676 1356.545410 1350.504141 1345.425814 1341.308785 1338.106286 1335.731829 1334.066072 1332.964820 1332.267807 1331.807896 1331.420288 1329.287874 1327.083851 1324.832574 1322.571242 1320.345700 1318.205793 1316.200508 1314.373148 1312.756789 1311.370239 1311.166325 1311.092652 1311.033247 1310.861412 1310.445433 1309.654736 1308.366242 1306.470671 1303.878528 1300.525513 1295.070638 1288.931481 1282.246779 1275.177089 1267.897826 1260.591836 1253.441798 1246.622746 1240.294982 1234.597656 1230.279800 1226.730810 1223.947336 1221.897502 1220.523802 1219.746982 1219.470732 1219.586992 1219.981671 1220.540527 1220.528661 1220.532080 1220.518915 1220.470222 1220.380395 1220.257077 1220.120582 1220.002834 1219.945880 1220.000000 1219.605243 1219.486725 1219.754971 1220.511991 1221.845166 1223.821618 1226.483292 1229.842959 1233.881329 1238.545410 1244.708958 1251.212806 1257.829414 1264.315268 1270.421050 1275.902250 1280.529791 1284.100276 1286.445442 ) qmult=(98.543045 101.436955 104.197894 106.714107 108.874442 110.572806 111.712596 112.210949 112.002645 111.043518 109.313232 106.353394 102.700555 98.451469 93.724132 88.653798 83.388413 78.083627 72.897541 67.985366 63.494171 59.853940 56.857926 54.577351 53.062024 52.339282 52.413582 53.266732 54.858762 57.129382 60.000000 63.456111 67.305341 71.424017 75.682955 79.951543 84.101814 88.012407 91.572262 94.683974 97.266670 99.003718 100.129747 100.645369 100.570322 99.941801 98.812272 97.246877 95.320509 93.114678 90.714279 88.449638 86.135667 83.829344 81.582246 79.439610 77.439666 75.613239 73.983615 72.566670 71.371216 70.445807 69.738194 69.236020 68.923308 68.781779 68.792163 68.935462 69.194099 69.552918 69.999985 70.250379 70.599495 71.069741 71.684440 72.465907 73.433468 74.601537 75.977816 77.561733 79.343178 81.762902 84.288987 86.842354 89.338847 91.692608 93.819594 95.641109 97.087201 98.099824 98.635605 98.333269 97.549486 96.322751 94.707651 92.772806 90.598314 88.272812 85.890242 83.546421 81.335548 79.420831 77.800706 76.539003 75.686588 75.279450 75.337236 75.862288 76.839221 78.235067 79.999992 82.468931 85.130196 87.860791 90.533297 93.021094 95.203590 96.971243 98.230215 98.906467 98.949150 97.580894 95.619069 93.154089 90.295401 87.166085 83.896968 80.620519 77.464751 74.547372 71.970428 70.868871 70.157693 69.783586 69.676788 69.756101 69.934359 70.124114 70.243283 70.220509 69.999985 68.448451 66.743431 64.983861 63.281839 61.756676 60.528501 59.711697 59.408441 59.702615 60.654358 63.357123 66.657752 70.437730 74.555893 78.854375 83.165215 87.317367 91.143847 94.488760 97.213928 98.425945 98.886196 98.603651 97.613833 95.976405 93.771971 91.098210 88.065507 84.792256 81.400002 78.553395 75.773376 73.119749 70.644392 68.390849 66.394227 64.681380 63.271309 62.175769 61.399994 60.549669 60.046877 59.913680 60.164391 60.804257 61.828319 63.220517 64.953106 66.986428 69.269089 72.347156 75.488852 78.564170 81.443190 84.001540 86.125730 87.718178 88.701726 89.023464 88.657707 86.697189 84.162500 81.190173 77.935067 74.563136 71.243782 68.142089 65.411248 63.185461 61.573608 61.945418 62.943650 64.471272 66.407347 68.614083 70.944510 73.250471 75.390576 77.237793 78.686363 78.211057 77.335150 76.162548 74.817481 73.437130 72.163641 71.135865 70.481185 70.307781 70.697662 73.251454 76.299227 79.691258 83.254840 86.802748 90.142371 93.085140 95.455880 97.101691 97.900002 96.303042 93.856067 90.679288 86.924388 82.767020 78.398399 74.016333 69.816065 65.981271 62.675583 61.441573 60.853576 60.862343 61.392291 62.346981 63.615379 65.078598 66.616850 68.116288 69.475449 69.346625 69.042464 68.630120 68.191373 67.817256 67.602183 67.637836 68.007097 68.778287 69.999985 72.965477 76.294350 79.852825 83.491188 87.050780 90.371433 93.299053 95.693051 97.433307 98.426392 97.355698 95.557766 93.145518 90.257032 87.048586 83.687025 80.341777 77.176811 74.342892 71.970428 71.533606 71.617129 72.148194 73.031854 74.157340 75.405003 76.653576 77.787435 78.703546 79.317795 78.180158 76.768495 75.194143 73.585615 72.081439 70.822460 69.943911 69.567623 69.794674 70.698822 73.712649 77.328857 81.400884 85.757534 90.210786 94.564328 98.622466 102.199071 105.126205 107.262100 107.346547 106.561268 104.971283 102.674004 99.794246 96.478260 92.887061 89.189286 85.553874 82.142853 80.015648 78.309968 77.056412 76.266562 75.934445 76.038608 76.544687 77.408336 78.578374 79.999992 80.939528 82.080970 83.430490 84.993616 86.773447 88.768798 90.972394 93.369210 95.935070 98.635597 102.111631 105.562587 108.867065 111.901971 114.547572 116.692592 118.239146 119.107318 119.239216 118.602325 116.573119 113.848544 110.532658 106.751777 102.649656 98.382069 94.110971 89.998442 86.200629 82.861893 80.530505 78.852506 77.873602 77.615248 78.074556 79.224955 81.017579 83.383315 86.235441 89.472778 92.986309 96.655445 100.357250 103.969496 107.374740 110.464223 113.141479 115.325554 116.953718 117.983597 118.278567 117.966959 117.082653 115.680088 113.832251 111.628066 109.169263 106.566815 103.937070 101.397667 98.954792 96.831777 95.134674 93.954086 93.361288 93.404915 94.108342 95.467851 97.451679 100.000000 103.701068 107.712403 111.845102 115.898964 119.670511 122.961201 125.585517 127.378659 128.203536 127.956810 125.570516 122.110364 117.677979 212.408069 206.462036 200.020694 193.276418 186.424994 179.657500 173.152527 168.181953 163.670206 159.630681 156.054732 152.914940 150.169067 147.764504 145.642993 143.745410 142.016373 139.437235 137.027194 134.842388 132.944417 131.396553 130.259694 129.588215 129.425945 129.802432 130.729691 133.174639 136.048957 139.221882 142.550936 145.887933 149.085279 152.002286 154.511288 156.503295 157.892975 157.647815 156.799113 155.430501 153.647714 151.572886 149.338269 147.079616 144.929505 143.010859 141.430939 141.361727 141.685828 142.348866 143.278112 144.387251 145.581693 146.764198 147.840552 148.725065 149.345642 148.606533 147.606313 146.419635 145.134794 143.848702 142.661415 141.670455 140.965173 140.621382 140.696503 142.268792 144.214566 146.432013 148.802476 151.196022 153.477500 155.512840 157.175330 158.351647 158.947372 157.937556 156.315050 154.143175 151.506297 148.505320 145.252576 141.866362 138.465317 135.162905 132.062195 130.298441 128.804039 127.542245 126.464031 125.512409 124.627100 123.749328 122.826518 121.816674 120.692230 118.402972 116.087739 113.860476 111.844564 110.166610 108.949910 108.307844 108.337484 109.113680 110.683884 114.097891 118.213759 122.893958 127.976179 133.279733 138.612653 143.779234 148.587738 152.857990 156.428574 158.526114 159.739575 160.049642 159.468168 158.036915 155.825331 152.927448 149.458032 145.548107 141.340027 137.085769 132.819014 128.676869 124.788503 121.270873 118.224873 115.732031 113.851845 112.619865 112.046570 112.688344 113.888000 115.536573 117.510249 119.676380 121.899761 124.048934 126.002266 127.653576 128.917084 128.890143 128.451847 127.665081 126.613285 125.395549 124.121075 122.903225 121.853408 121.075050 120.657898 121.485763 122.722527 124.324897 126.230246 128.359597 130.621259 132.914943 135.136227 137.181171 138.950912 139.972935 140.589386 140.771648 140.506421 139.796022 138.658160 137.125222 135.243082 133.069498 130.672134 128.225889 125.701907 123.175454 120.722910 118.419558 116.337367 114.542867 113.095144 112.044035 111.428558 111.324068 111.691510 112.527368 113.814902 115.524566 117.614770 120.032987 122.717150 125.597334 128.597656 131.829532 135.005383 138.028900 140.808688 143.261533 145.315430 146.912268 148.010070 148.584712 148.631058 147.811564 146.540970 144.899576 142.980697 140.886700 138.724718 136.602219 134.622565 132.880735 131.459366 130.912767 130.759462 130.987694 131.568902 132.459592 133.603684 134.935270 136.381645 137.866511 139.313217 140.337782 141.209781 141.894200 142.363117 142.596002 142.579726 142.308326 141.782530 141.009093 139.999985 139.055741 137.887230 136.493670 134.878862 133.051709 131.026611 128.823712 126.468964 123.993986 121.435715 118.501768 115.599238 112.803522 110.188075 107.821290 105.763500 104.064213 102.759684 101.870938 101.402344 102.050124 103.015252 104.192967 105.470519 106.732752 107.867802 108.772679 109.358507 109.555222 109.315506 107.674594 105.661595 103.386679 100.977525 98.572876 96.315605 94.345571 92.792552 91.769536 91.366653 92.766412 94.782437 97.320457 100.262726 103.473824 106.807117 110.111635 113.239081 116.050700 118.423721 119.285969 119.618183 119.453638 118.847303 117.872108 116.614559 115.169857 113.636769 112.112442 110.687378 110.356060 110.188333 110.156443 110.221969 110.338935 110.457254 110.526352 110.498787 110.333709 109.999985 108.664032 107.205868 105.701877 104.235440 102.892518 101.757023 100.906157 100.405937 100.307079 100.641449 102.374142 104.455539 106.771229 109.192999 111.584793 113.809010 115.732907 117.234842 118.210111 118.576157 117.291267 115.398769 112.983060 110.150163 107.022256 103.731612 100.414194 97.203171 94.222611 91.581619 90.499359 89.813584 89.470956 89.401329 89.522735 89.746869 89.984797 90.152647 90.177036 89.999985 88.535282 86.905106 85.202412 83.534142 82.015663 80.764720 79.895164 79.510721 79.699042 80.526306 82.987388 86.055035 89.631493 93.596676 97.813113 102.131569 106.397103 110.455346 114.158776 117.372742 119.416897 120.812561 121.538784 121.598301 121.016666 119.840653 118.135981 115.984469 113.480720 110.728470 108.133861 105.483192 102.860765 100.348153 98.022232 95.953347 94.203697 92.825929 91.861995 91.342270 91.186128 91.506433 92.304356 93.567763 95.271264 97.376608 99.833406 102.580197 105.545826 108.651123 112.162619 115.610837 118.876651 121.845616 124.412320 126.484502 127.986755 128.863692 129.082459 128.634476 126.924325 124.656533 121.946311 118.924590 115.732179 112.513592 109.410742 106.556780 104.070279 102.050003 101.505585 101.469272 101.883047 102.668204 103.730185 104.963987 106.259913 107.509413 108.610798 109.474564 109.149170 108.537601 107.681950 106.639940 105.481229 104.283189 103.126338 102.089623 101.245757 100.656815 101.117835 101.845526 102.789611 103.886386 105.061755 106.234719 107.321162 108.237798 108.906117 109.256180 108.934934 108.222118 107.115725 105.629549 103.792876 101.649638 99.257046 96.683757 94.007625 91.313110 88.619303 86.088148 83.812089 81.877562 80.361577 79.328534 78.827394 78.889292 79.525709 80.727264 82.911230 85.540180 88.505992 91.686957 94.952453 98.167939 101.200081 103.921851 106.217402 107.986557 108.725882 108.837334 108.322176 107.203672 105.525589 103.350057 100.754858 97.830272 94.675577 91.395340 88.414925 85.490358 82.694473 80.094852 77.752529 75.720900 74.044890 72.760350 71.893699 71.461792 71.466856 71.913689 72.791972 74.083093 75.760909 77.792635 80.139820 82.759378 85.604647 88.626450 91.685004 94.825398 98.004032 101.177548 104.303063 107.338359 110.242040 112.973676 115.493962 117.764893 119.991733 121.877575 123.370615 124.424389 124.999506 125.065277 124.601161 123.597992 122.058916 120.000000 117.295318 114.155784 110.648486 106.850257 102.845570 98.724191 94.578657 90.501661 86.583414 82.909073 79.683179 76.835223 74.411523 72.446684 70.962992 69.970135 69.465247 69.433267 69.847614 70.671143 71.993840 73.614154 75.460309 77.457444 79.530213 81.605348 83.614085 85.494398 87.192940 88.666656 89.602174 90.285166 90.731660 90.967083 91.024201 90.940831 90.757418 90.514584 90.250758 89.999985 90.349183 90.711952 91.054387 91.339174 91.528274 91.585709 91.480316 91.188331 90.695702 89.999985 88.486936 86.858771 85.203818 83.616844 82.194697 81.031763 80.215406 79.821575 79.910771 80.524521 82.386891 84.728784 87.464893 90.492799 93.697342 96.955478 100.141408 103.131810 105.810972 108.075638 109.390924 110.179171 110.433613 110.167855 109.414797 108.224911 106.663931 104.810054 102.750755 100.579330 98.606958 96.691954 94.906615 93.317671 91.984325 90.956520 90.273496 89.962662 90.038823 -9.496231 -8.582335 -7.320534 -5.752514 -3.930095 -1.913453 0.230892 2.432262 4.618125 6.716431 8.657928 10.292728 11.656600 12.708152 13.415530 13.757244 13.722722 13.312580 12.538594 11.423410 9.999985 8.566654 6.897264 5.029535 3.009960 0.893648 -1.256107 -3.368548 -5.366493 -7.167673 -8.686386 -10.349432 -11.514566 -12.056896 -11.862713 -10.834819 -8.897509 -6.000996 -2.125101 2.717958 8.481827 16.075576 24.310974 32.961384 41.782221 50.520384 58.924049 66.752477 73.785466 79.832123 84.738609 87.224646 88.497898 88.641274 87.777124 86.060592 83.671894 80.807839 77.672912 74.470275 71.393021 69.771873 68.500167 67.603785 67.085683 66.928521 67.098063 67.547168 68.220178 69.057468 69.999985 70.110711 70.303394 70.614678 71.085428 71.757951 72.672955 73.866416 75.366496 77.190667 79.343178 82.601667 86.081888 89.675895 93.267392 96.736529 99.964894 102.840519 105.262696 107.146440 108.426399 108.360095 107.689913 106.481123 104.818152 102.800433 100.537742 98.145214 95.738231 93.427370 91.313622 90.237789 89.450878 88.941654 88.684826 88.643718 88.773355 89.023829 89.343784 89.683870 89.999992 89.590757 89.153587 88.728724 88.362486 88.104406 88.004123 88.108172 88.456815 89.081060 89.999992 91.825936 93.888161 96.110756 98.407770 100.686735 102.852485 104.811128 106.474023 107.761612 108.606964 108.597359 108.093569 107.111546 105.684374 103.860898 101.703831 99.287394 96.694604 94.014263 91.337784 88.840820 86.516397 84.438084 82.670889 81.269122 80.274566 79.715046 79.603416 79.937027 80.697670 82.138665 83.902756 85.906554 88.058838 90.264298 92.427390 94.456192 96.266095 97.783209 98.947365 99.254916 99.178458 98.748057 98.008277 97.015524 95.834994 94.537329 93.195145 91.879552 90.656807 90.172699 89.8