New loadshape.LS_PhaseA npts=1440 sinterval=60 pmult=(1205.872803 1203.272308 1200.414056 1197.336000 1194.087952 1190.728914 1187.324103 1183.941798 1180.650134 1177.513965 1174.591919 1172.045970 1169.791874 1167.846727 1166.215008 1164.888499 1163.846708 1163.057794 1162.479945 1162.063156 1161.751343 1161.211626 1160.680995 1160.121382 1159.495411 1158.767541 1157.905240 1156.880133 1155.669103 1154.255302 1152.629028 1150.460065 1148.111358 1145.624291 1143.045186 1140.423397 1137.809372 1135.252756 1132.800597 1130.495707 1128.375244 1126.377170 1124.624291 1123.138338 1121.931461 1121.005824 1120.353577 1119.957196 1119.790189 1119.818133 1120.000000 1120.062116 1120.203107 1120.390205 1120.588452 1120.761508 1120.872552 1120.885275 1120.764913 1120.479318 1120.000000 1119.044098 1117.874679 1116.500489 1114.934306 1113.192091 1111.292124 1109.254173 1107.098713 1104.846225 1102.516602 1099.926712 1097.312803 1094.706798 1092.136616 1089.625162 1087.189567 1084.840724 1082.583122 1080.414989 1078.328735 1076.306124 1074.337785 1072.404176 1070.483946 1068.555436 1066.598257 1064.594875 1062.532126 1060.402598 1058.205811 1055.408438 1052.613010 1049.887087 1047.300528 1044.922158 1042.816418 1041.040150 1039.639627 1038.647945 1038.082886 1038.065164 1038.447228 1039.184492 1040.216061 1041.466410 1042.847645 1044.262259 1045.606307 1046.772898 1047.655884 1047.896815 1047.682897 1046.952588 1045.656183 1043.757434 1041.234897 1038.082929 1034.312341 1029.950640 1025.041870 1019.258787 1013.095909 1006.672655 1000.115772 993.555142 987.119554 980.932581 975.108684 969.749676 964.941650 960.873804 957.462361 954.724079 952.655331 951.232991 950.415952 950.147202 950.356380 950.962713 951.878235 952.608391 953.499281 954.493509 955.534991 956.569799 957.546949 958.419109 959.143241 959.681166 960.000061 960.005020 959.748684 959.221917 958.421364 957.349184 956.012738 954.424243 952.600395 950.561964 948.333374 945.609781 942.781991 939.909224 937.048705 934.253420 931.570105 929.037534 926.685165 924.532201 922.587097 920.969953 919.536223 918.253815 917.083752 915.982516 914.904632 913.805376 912.643506 911.383901 910.000000 907.888546 905.683682 903.442419 901.229387 899.113943 897.167117 895.458487 894.053136 893.008775 892.373169 892.433278 892.937926 893.873811 895.214865 896.923516 898.952365 901.246199 903.744267 906.382706 909.097046 911.245329 913.398095 915.549352 917.694553 919.829089 921.946807 924.038616 926.091277 928.086442 930.000000 932.054966 933.940633 935.595178 936.955095 937.957785 938.544313 938.662221 938.268282 937.331093 935.833374 933.231922 930.131889 926.610991 922.759294 918.676095 914.466532 910.238061 906.096902 902.144569 898.474609 895.217980 892.390343 890.041601 888.205230 886.897512 886.117338 885.846562 886.050899 886.681330 887.675964 888.850889 890.247907 891.789820 893.395680 894.983284 896.471728 897.783949 898.849155 899.605093 900.000061 899.540766 898.693169 897.482195 895.942599 894.116595 892.051337 889.796365 887.401107 884.912549 882.373169 880.059071 877.738707 875.413147 873.077349 870.721484 868.332572 865.896333 863.399179 860.830243 858.183350 854.927921 851.649272 848.407303 845.265886 842.290566 839.546182 837.094489 834.991868 833.287217 832.020081 831.298130 831.051622 831.278152 831.963173 833.080531 834.593380 836.455452 838.612640 841.004830 843.567932 845.944469 848.385862 850.852197 853.304734 855.706339 858.021912 860.218808 862.267262 864.140801 865.816650 867.234732 868.426068 869.384455 870.108235 870.600321 870.868175 870.923735 870.783288 870.467272 870.000000 869.030757 868.000692 866.973518 866.010566 865.168110 864.494866 864.029796 863.800278 863.820719 864.091675 864.807818 865.716131 866.759064 867.869496 868.973657 869.994360 870.854405 871.480045 871.804375 871.770508 870.779852 869.405997 867.681476 865.650802 863.368219 860.895157 858.297505 855.642787 852.997364 850.423767 848.050798 845.846208 843.842133 842.060242 840.511238 839.194790 838.099925 837.205823 836.483022 835.894958 835.354194 834.866977 834.390511 833.882481 833.303147 832.617399 831.796687 830.820758 829.679113 828.372131 826.368121 824.280269 822.187656 820.174280 818.325109 816.722065 815.440115 814.543586 814.082888 814.091736 814.856327 816.076254 817.703680 819.673197 821.904179 824.303731 826.770134 829.196652 831.475589 833.502441 834.837564 835.768457 836.250806 836.254017 835.762095 834.774142 833.304453 831.382213 829.050798 826.366699 823.066688 819.586988 816.040361 812.541638 809.203524 806.132515 803.425074 801.164182 799.416393 798.229492 797.871414 798.087431 798.842804 800.084640 801.744538 803.741767 805.986877 808.385588 810.842819 813.266724 814.977503 816.547279 817.963168 819.221854 820.328538 821.295639 822.141303 822.887807 823.559937 824.183411 825.014840 825.826035 826.619121 827.395269 828.155364 828.900800 829.634350 830.361062 831.089112 831.830566 832.017484 832.305213 832.767037 833.474609 834.494558 835.885228 837.693677 839.953063 842.680518 845.875610 849.781146 854.075204 858.681447 863.509822 868.459877 873.424529 878.294151 882.960843 887.322732 891.288147 894.382884 896.978855 899.067938 900.660069 901.782797 902.480331 902.812097 902.850875 902.680541 902.393494 901.683323 901.086922 900.737585 900.760922 901.269664 902.358892 904.101862 906.546605 909.713399 913.593262 918.685573 924.339940 930.418142 936.763474 943.207373 949.576536 955.700264 961.417778 966.585200 971.081970 973.736286 975.662184 976.924348 977.613823 977.842987 977.739844 977.441847 977.089510 976.820046 976.761292 977.540633 978.690312 980.239107 982.195333 984.547572 987.266207 990.305659 993.607235 997.102454 1000.716736 1003.994664 1007.274376 1010.515965 1013.683924 1016.748479 1019.686711 1022.483451 1025.131892 1027.633919 1030.000122 1031.766026 1033.480919 1035.217431 1037.048621 1039.043951 1041.265396 1043.763821 1046.575794 1049.720958 1053.200073 1057.454376 1061.944919 1066.575180 1071.235254 1075.806421 1080.166152 1084.193352 1087.773651 1090.804528 1093.200073 1093.885280 1093.914987 1093.355978 1092.292122 1090.819783 1089.042886 1087.067829 1084.998474 1082.931406 1080.951660 1079.847709 1078.891317 1078.057034 1077.306682 1076.593044 1075.864029 1075.067104 1074.153810 1073.084139 1071.830566 1069.248899 1066.575742 1063.929430 1061.437079 1059.228774 1057.431538 1056.163318 1055.527240 1055.606355 1056.459106 1058.782261 1061.850787 1065.578908 1069.856274 1074.552478 1079.522335 1084.611725 1089.663784 1094.525218 1099.052490 1102.177688 1104.814705 1106.956758 1108.615246 1109.817529 1110.604269 1111.026444 1111.142194 1111.013628 1110.703735 1110.628053 1110.457223 1110.213117 1109.913655 1109.573552 1109.205375 1108.820835 1108.432237 1108.053989 1107.704102 1106.734216 1105.902236 1105.297778 1105.010285 1105.125734 1105.723389 1106.872752 1108.630790 1111.039572 1114.124390 1118.007350 1122.551197 1127.716513 1133.447091 1139.671740 1146.306603 1153.257923 1160.425151 1167.704306 1174.991455 1181.879481 1188.609109 1195.121243 1201.366073 1207.303978 1212.906145 1218.154919 1223.043841 1227.577404 1231.770508 1235.082563 1238.157181 1241.080139 1243.936780 1246.807328 1249.762478 1252.859430 1256.138533 1259.620674 1263.305542 1267.774408 1272.329656 1276.858150 1281.235049 1285.330057 1289.014058 1292.165874 1294.678869 1296.467128 1297.470947 1296.287383 1294.412112 1291.996543 1289.213566 1286.249752 1283.297044 1280.544307 1278.169039 1276.329571 1275.158081 1275.644995 1276.885793 1278.833406 1281.409866 1284.510974 1288.011979 1291.774041 1295.651216 1299.497680 1303.174927 1305.595932 1307.704010 1309.497446 1310.993447 1312.226477 1313.245982 1314.113605 1314.900000 1315.681397 1316.536011 1317.446225 1318.582688 1320.016914 1321.808697 1324.003101 1326.628015 1329.692355 1333.185004 1337.074507 1341.309570 1345.910962 1350.695245 1355.554751 1360.372216 1365.025152 1369.390554 1373.349780 1376.793431 1379.626055 1381.770508 1382.448810 1382.416260 1381.728462 1380.461881 1378.710662 1376.582978 1374.197026 1371.676827 1369.147962 1366.733398 1364.599575 1362.796741 1361.414101 1360.525693 1360.188567 1360.441574 1361.304767 1362.779447 1364.848802 1367.479126 1370.274378 1373.550013 1377.261309 1381.351870 1385.754869 1390.394630 1395.188520 1400.049104 1404.886513 1409.610962 1414.027235 1418.171704 1421.978791 1425.391733 1428.364217 1430.861794 1432.863038 1434.360394 1435.360690 1435.885254 1435.284580 1434.349487 1433.196497 1431.945457 1430.714080 1429.612635 1428.738982 1428.174156 1427.978654 1428.189575 1429.298883 1430.771974 1432.530160 1434.475568 1436.496005 1438.470461 1440.275023 1441.788970 1442.900813 1443.514038 1442.438761 1440.832150 1438.759509 1436.304060 1433.562572 1430.640554 1427.647236 1424.690537 1421.872223 1419.283447 1417.459332 1415.959882 1414.787748 1413.929568 1413.357805 1413.033219 1412.907860 1412.928444 1413.039979 1413.189453 1412.635930 1412.095260 1411.596032 1411.173183 1410.866393 1410.718298 1410.772606 1411.072167 1411.657094 1412.562988 1413.548775 1414.927801 1416.735527 1418.995267 1421.716270 1424.892326 1428.500964 1432.503300 1436.844547 1441.455200 1446.527438 1451.672903 1456.768839 1461.691188 1466.319829 1470.543843 1474.266612 1477.410527 1479.921134 1481.770508 1481.704089 1481.114736 1480.164993 1479.032971 1477.903748 1476.960523 1476.375849 1476.303297 1476.869864 1478.169434 1481.096046 1484.752360 1489.040998 1493.829895 1498.958080 1504.242609 1509.486371 1514.486485 1519.042956 1522.967285 1525.040211 1526.262992 1526.611149 1526.086995 1524.718310 1522.556274 1519.672727 1516.156906 1512.111764 1507.650024 1502.802642 1497.781411 1492.711765 1487.712667 1482.892764 1478.347037 1474.154052 1470.373898 1467.046881 1464.192993 1461.978471 1460.206069 1458.825758 1457.774287 1456.979118 1456.362729 1455.847091 1455.358159 1454.830172 1454.209595 1452.412982 1450.555023 1448.719961 1447.001474 1445.497397 1444.304230 1443.511667 1443.197378 1443.422254 1444.226318 1446.107434 1448.531009 1451.420876 1454.679020 1458.189180 1461.821244 1465.436276 1468.891988 1472.048465 1474.773926 1476.253872 1477.147302 1477.433677 1477.111573 1476.198181 1474.728328 1472.753055 1470.337821 1467.560385 1464.508423 1460.938939 1457.316314 1453.769658 1450.423798 1447.394875 1444.786301 1442.685250 1441.159771 1440.256639 1440.000000 1440.627706 1441.862638 1443.642188 1445.886623 1448.503081 1451.390056 1454.442172 1457.555079 1460.630265 1463.579590 1465.207574 1466.675064 1468.036612 1469.356548 1470.704106 1472.148380 1473.753340 1475.573123 1477.647830 1480.000000 1483.415280 1487.024277 1490.722304 1494.391554 1497.906746 1501.141259 1503.973525 1506.293400 1508.008244 1509.048462 1507.987785 1506.318808 1504.175640 1501.711774 1499.092830 1496.488879 1494.066645 1491.981893 1490.372298 1489.351074 1489.563537 1490.446850 1491.969342 1494.068086 1496.651968 1499.605870 1502.795814 1506.074886 1509.289707 1512.287231 1514.431413 1516.125994 1517.297528 1517.892236 1517.878421 1517.248259 1516.018888 1514.232763 1511.957229 1509.283325 1505.617517 1501.855534 1498.201541 1494.863539 1492.045113 1489.937267 1488.710638 1488.508352 1489.439784 1491.575439 1495.354229 1500.312339 1506.354066 1513.343460 1521.108809 1529.448344 1538.136980 1546.933862 1555.590470 1563.859009 1570.796254 1576.947931 1582.173154 1586.354304 1589.399356 1591.243561 1591.850486 1591.212386 1589.349925 1586.311279 1581.825194 1576.362454 1570.070659 1563.112245 1555.659304 1547.888360 1539.975261 1532.090345 1524.394011 1517.032837 1510.267634 1504.066527 1498.507463 1493.647489 1489.523301 1486.152468 1483.535265 1481.656992 1480.490673 1480.000000 1479.270363 1479.202046 1479.818453 1481.135297 1483.158386 1485.881589 1489.285112 1493.334199 1497.978328 1503.151001 1509.238149 1515.636101 1522.198149 1528.772504 1535.207695 1541.358121 1547.089569 1552.284481 1556.846761 1560.705933 1562.610804 1563.863395 1564.582623 1564.906273 1564.983671 1564.968017 1565.008719 1565.243993 1565.794033 1566.755005 1568.799782 1571.304461 1574.220557 1577.470920 1580.953519 1584.546278 1588.112777 1591.508596 1594.588047 1597.211060 1598.502939 1599.168643 1599.182568 1598.539471 1597.254628 1595.363392 1592.920172 1589.996856 1586.680740 1583.072021 1578.752485 1574.409264 1570.205780 1566.299901 1562.837612 1559.947100 1557.733493 1556.274436 1555.616679 1555.773804 1557.273128 1559.467094 1562.224754 1565.391666 1568.796782 1572.260017 1575.600195 1578.643104 1581.229326 1583.221558 1583.105299 1582.331533 1580.976164 1579.140107 1576.943292 1574.518085 1572.002397 1569.532776 1567.237769 1565.231812 1564.436772 1564.025623 1563.976869 1564.249744 1564.787849 1565.523542 1566.382856 1567.290738 1568.176361 1568.978271 1568.440705 1567.847555 1567.287310 1566.858285 1566.663732 1566.806693 1567.384783 1568.485135 1570.179684 1572.520996 1575.848376 1579.828450 1584.414080 1589.534201 1595.095798 1600.986708 1607.079153 1613.233889 1619.304819 1625.143921 1630.083261 1634.555716 1638.478960 1641.781929 1644.406181 1646.307019 1647.454350 1647.833268 1647.444361 1646.303711 1644.149774 1641.345736 1637.974711 1634.129121 1629.907751 1625.412778 1620.746842 1616.010265 1611.298476 1606.699707 1602.051808 1597.684545 1593.673551 1590.078985 1586.943922 1584.293319 1582.133601 1580.452870 1579.221722 1578.394653 1577.682689 1577.264036 1577.076432 1577.049014 1577.104472 1577.161474 1577.137294 1576.950574 1576.524129 1575.787720 1574.344988 1572.512308 1570.281780 1567.657434 1564.654850 1561.300533 1557.631071 1553.692104 1549.537134 1545.226196 1540.367358 1535.524015 1530.803649 1526.309156 1522.134904 1518.363144 1515.060923 1512.277603 1510.043067 1508.366699 1507.417890 1506.970409 1506.959304 1507.304860 1507.916385 1508.696458 1509.545488 1510.366391 1511.069222 1511.575562 1510.978348 1510.150564 1509.136981 1507.996068 1506.796660 1505.614287 1504.527311 1503.613032 1502.943900 1502.583984 1502.589849 1502.993630 1503.817572 1505.066643 1506.727830 1508.770133 1511.145298 1513.789233 1516.624087 1519.560913 1522.301787 1524.965466 1527.465793 1529.717476 1531.639132 1533.156368 1534.204813 1534.732984 1534.704896 1534.102295 1532.345733 1530.087400 1527.416977 1524.438833 1521.268330 1518.027863 1514.842756 1511.837170 1509.130126 1506.831787 1504.953461 1503.670782 1503.056259 1503.162345 1504.019835 1505.636972 1507.999292 1511.070214 1514.792328 1519.089355 1523.618707 1528.547000 1533.778374 1539.207988 1544.724760 1550.214358 1555.562368 1560.657541 1565.395039 1569.679565 1573.030813 1575.812714 1578.006507 1579.607955 1580.626570 1581.084568 1581.015581 1580.463184 1579.479287 1578.122437 1576.210233 1574.075300 1571.805430 1569.485524 1567.194788 1565.004237 1562.974568 1561.154491 1559.579533 1558.271362 1556.980952 1555.980820 1555.272624 1554.843587 1554.666890 1554.702599 1554.899093 1555.194963 1555.521319 1555.804443 1555.805173 1555.627803 1555.214898 1554.514340 1553.481491 1552.081238 1550.289851 1548.096586 1545.504970 1542.533691 1538.612465 1534.446659 1530.149671 1525.842158 1521.647376 1517.686481 1514.073949 1510.913271 1508.293075 1506.283813 1505.066395 1504.525077 1504.652586 1505.419209 1506.774110 1508.647397 1510.952834 1513.591118 1516.453594 1519.426270 1521.861504 1524.226608 1526.458686 1528.499402 1530.295698 1531.800412 1532.972799 1533.778956 1534.192160 1534.193115 1533.496271 1532.393923 1530.911715 1529.079839 1526.931421 1524.500995 1521.823141 1518.931334 1515.857030 1512.629028 1509.285975 1505.838105 1502.303888 1498.699274 1495.038479 1491.334931 1487.602341 1483.855802 1480.112870 1476.394531 1471.930790 1467.614153 1463.543185 1459.812405 1456.507786 1453.702471 1451.452888 1449.795414 1448.743751 1448.287109 1448.792589 1449.761553 1451.076009 1452.600333 1454.186353 1455.679006 1456.922356 1457.765781 1458.070072 1457.713257 1455.813317 1453.149267 1449.741659 1445.635334 1440.897024 1435.612345 1429.882273 1423.819250 1417.543046 1411.176514 1404.754621 1398.486410 1392.486744 1386.857421 1381.683773 1377.031891 1372.946542 1369.449842 1366.540720 1364.195190 1362.234621 1360.738525 1359.633817 1358.831299 1358.228657 1357.713982 1357.169675 1356.476652 1355.518685 1354.186768 1352.147897 1349.577848 1346.431633 1342.683147 1338.326428 1333.376378 1327.868919 1321.860558 1315.427361 1308.663330 1300.996121 1293.287002 1285.723343 1278.491181 1271.767749 1265.714253 1260.469174 1256.142333 1252.809929 1250.510742 1249.706970 1249.854261 1250.832900 1252.489736 1254.643915 1257.093640 1259.623722 1262.013655 1264.045944 1265.514404 1265.626632 1264.883355 1263.204962 1260.542959 1256.881185 1252.236084 1246.656044 1240.219832 1233.034139 1225.230347 1216.357918 1207.235802 1198.092135 1189.154351 1180.640367 1172.750141 1165.657878 1159.505175 1154.395351 1150.389160 1148.321247 1147.274069 1147.105146 1147.637657 1148.668728 1149.978678 1151.340855 1152.531710 1153.340709 ) qmult=(171.745512 171.783471 171.788384 171.733343 171.594783 171.352942 170.992165 170.501091 169.872711 169.104304 168.197275 167.257674 166.184849 164.982714 163.659033 162.225470 160.697534 159.094438 157.438846 155.756527 154.075905 152.339253 150.674278 149.120748 147.717386 146.500576 145.503114 144.753037 144.272558 144.077169 144.174915 144.680594 145.461679 146.492595 147.741025 149.168975 150.734002 152.390553 154.091389 155.789030 157.437183 158.938387 160.311610 161.526060 162.556146 163.381967 163.989626 164.371363 164.525500 164.456213 164.173138 163.644868 162.939475 162.082938 161.103345 160.029698 158.890715 157.713689 156.523409 155.341222 154.184238 153.257281 152.358935 151.475351 150.589446 149.682187 148.733965 147.725980 146.641598 145.467610 144.195335 142.587871 140.901723 139.164856 137.409132 135.668910 133.979507 132.375598 130.889604 129.550148 128.380630 127.634411 127.064082 126.652114 126.375106 126.204903 126.109877 126.056323 126.009921 125.937204 125.806984 125.498860 125.091576 124.575314 123.945603 123.203375 122.354835 121.411140 120.387899 119.304510 118.183365 117.002188 115.836548 114.715936 113.668401 112.719246 111.889795 111.196303 110.649021 110.251477 110.000000 110.096045 110.291038 110.542507 110.803997 111.027089 111.163518 111.167310 110.996856 110.616848 110.000000 108.937043 107.629037 106.095203 104.364107 102.472584 100.464370 98.388492 96.297484 94.245466 92.286179 90.552157 89.001604 87.669426 86.584053 85.766511 85.229708 84.977973 85.006837 85.303096 85.845123 86.761438 87.845100 89.040881 90.290515 91.534955 92.716654 93.781773 94.682254 95.377671 95.836800 95.809449 95.535065 95.034080 94.335948 93.477500 92.501041 91.452259 90.378026 89.324173 88.333328 87.633232 87.046874 86.581085 86.235274 86.001580 85.865296 85.805543 85.796170 85.806845 85.804306 85.819624 85.747567 85.548972 85.187998 84.633868 83.862455 82.857666 81.612548 80.130093 78.423683 76.266932 73.964665 71.580437 69.183414 66.845633 64.639127 62.633024 60.890728 59.467278 58.406998 58.157585 58.285030 58.758284 59.535344 60.565502 61.791877 63.154118 64.591171 66.044008 67.458191 68.413200 69.275617 70.046948 70.735928 71.357215 71.929825 72.475386 73.016305 73.573906 74.166656 75.156650 76.173686 77.191150 78.178681 79.103529 79.932051 80.631286 81.170536 81.522894 81.666656 81.348741 80.819706 80.098759 79.210912 78.185868 77.056751 75.858723 74.627554 73.398190 72.203384 71.324907 70.513426 69.768116 69.084932 68.457489 67.878029 67.338414 66.831124 66.350179 65.891968 65.292319 64.732083 64.231051 63.811003 63.494705 63.304814 63.262710 63.387303 63.693879 64.193008 64.983381 65.960804 67.109285 68.406562 69.824429 71.329264 72.882724 74.442622 75.963944 77.399994 78.848094 80.106164 81.118445 81.834250 82.210052 82.211375 81.814467 81.007642 79.792269 78.183350 75.987355 73.487506 70.756397 67.875483 64.932249 62.017149 59.220423 56.628895 54.322854 52.373138 51.077388 50.220111 49.810708 49.844036 50.300906 51.149004 52.344177 53.832062 55.549977 57.429031 59.376289 61.340148 63.248244 65.030827 66.622845 67.965878 69.009846 69.714464 70.050379 69.999985 69.515501 68.649636 67.424635 65.873598 64.039253 61.972445 59.730387 57.374731 54.969510 52.579025 50.306063 48.164674 46.204564 44.468481 42.990910 41.797012 40.901844 40.309883 40.014871 39.999985 40.433464 41.068403 41.844771 42.697878 43.561021 44.368187 45.056712 45.569798 45.858804 45.885239 45.421977 44.673017 43.654002 42.391971 40.923996 39.295447 37.557969 35.767224 33.980497 32.254242 30.737988 29.373527 28.193401 27.221911 26.474053 25.954753 25.658433 25.568934 25.659799 25.894913 26.495150 27.121579 27.694841 28.134532 28.362680 28.307178 27.905060 27.105475 25.872269 24.186050 21.679984 18.768908 15.519079 12.011146 8.336969 4.596022 0.891506 -2.673676 -6.000957 -9.000000 -11.260518 -13.080319 -14.439935 -15.335755 -15.779750 -15.798713 -15.433044 -14.735134 -13.767393 -12.600006 -11.310183 -9.972822 -8.666434 -7.467258 -6.446719 -5.669043 -5.189113 -5.050627 -5.284607 -5.908325 -7.029844 -8.523528 -10.354992 -12.477511 -14.833773 -17.357956 -19.978080 -22.618535 -25.202730 -27.655746 -29.755074 -31.602227 -33.154192 -34.376994 -35.246513 -35.749023 -35.881426 -35.651199 -35.076058 -34.183334 -32.964996 -31.511971 -29.878002 -28.121329 -26.302853 -24.484262 -22.726147 -21.086181 -19.617404 -18.366669 -17.400033 -16.718963 -16.342529 -16.280085 -16.531163 -17.085649 -17.924238 -19.019157 -20.335126 -21.830521 -23.429255 -25.113764 -26.834126 71.460392 69.819871 68.292302 66.922211 65.749383 64.807740 64.124374 63.810188 63.777339 64.021585 64.531327 65.288297 66.268426 67.442875 68.779170 70.242424 71.796600 73.490957 75.199344 76.882716 78.506437 80.041647 81.466432 82.766715 83.936852 84.979907 85.907578 86.494705 87.033382 87.577195 88.182140 88.903708 89.793943 90.898593 92.254452 93.887022 95.808578 98.521908 101.461149 104.552255 107.711525 110.849223 113.873463 116.694199 119.227165 121.397629 123.143799 124.014736 124.423099 124.393249 123.965622 123.194823 122.147202 120.898042 119.528428 118.121938 116.761261 115.732095 114.878759 114.245987 113.868426 113.769602 113.961255 114.443056 115.202713 116.216473 117.449997 119.118919 120.891982 122.690610 124.434964 126.047518 127.456560 128.599465 129.425644 129.899026 130.000000 129.222067 128.128401 126.794202 125.306412 123.759521 122.251051 120.876898 119.726730 118.879606 118.399994 119.002957 119.988129 121.305405 122.888777 124.659682 126.530818 128.410273 130.205813 131.829143 133.199997 133.802406 134.069858 134.002022 133.612910 132.929811 131.991737 130.847451 129.553163 128.169990 126.761261 125.606172 124.527926 123.563542 122.744793 122.097307 121.639895 121.384106 121.334025 121.486316 121.830505 122.491672 123.293618 124.196780 125.159138 126.138191 127.092906 127.985613 128.783721 129.461238 130.000000 130.144249 130.160840 130.078737 129.933299 129.764349 129.614062 129.524724 129.536473 129.685097 130.000000 130.726988 131.632724 132.700241 133.903812 135.209827 136.577979 137.962719 139.314923 140.583731 141.718491 142.837848 143.718133 144.307385 144.563071 144.454555 143.965192 143.093989 141.856713 140.286420 138.433334 135.794291 133.067133 130.392168 127.913669 125.773684 124.105801 123.029116 122.642635 123.020324 124.207016 127.154908 130.823326 135.081040 139.773448 144.729409 149.768670 154.709609 159.376994 163.609481 167.266556 169.343962 170.727859 171.443440 171.543907 171.106931 170.230252 169.026609 167.618206 166.130922 164.688522 164.051827 163.622016 163.433825 163.508423 163.853738 164.465291 165.327475 166.415230 167.695996 169.131882 170.480061 171.919622 173.426085 174.975940 176.547503 178.121628 179.682272 181.216883 182.716616 184.176369 185.517790 186.824875 188.108669 189.381794 190.657335 191.947691 193.263457 194.612373 195.998397 197.420959 199.164296 200.902950 202.597322 204.205925 205.687382 207.002476 208.116174 208.999537 209.631433 210.000000 209.842486 209.452306 208.871381 208.149954 207.344686 206.516497 205.728240 205.042270 204.518021 204.209648 204.369599 204.811016 205.543890 206.568361 207.874885 209.444680 211.250442 213.257299 215.423968 217.704079 219.997761 222.307416 224.584258 226.779869 228.847460 230.743071 232.426697 233.863299 235.023686 235.885246 236.483966 236.756093 236.697265 236.311418 235.610855 234.616102 233.355535 231.864794 230.185979 228.366661 226.351347 224.310687 222.309873 220.413069 218.681310 217.170470 215.929371 214.998104 214.406619 214.173622 214.545143 215.256099 216.269505 217.539295 219.012438 220.631253 222.335857 224.066642 225.766699 227.384102 228.673275 229.816416 230.803597 231.633759 232.314272 232.860184 233.293199 233.640430 233.932974 234.204353 234.597980 235.028192 235.517621 236.086422 236.751493 237.525796 238.417816 239.431159 240.564297 241.810490 243.195584 244.662179 246.185880 247.738692 249.289882 250.806942 252.256592 253.605824 254.822930 255.878487 256.663926 257.246316 257.614800 257.762892 257.688448 257.393540 256.884227 256.170245 255.264636 254.183331 253.102139 251.870743 250.498410 248.997260 247.382668 245.673590 243.892780 242.066881 240.226368 238.405315 236.392333 234.496477 232.779469 231.301219 230.117463 229.277462 228.821843 228.780683 229.171894 230.000000 231.601660 233.576916 235.859743 238.374538 241.039139 243.768067 246.475889 249.080580 251.506754 253.688663 255.365311 256.724132 257.758634 258.477049 258.901785 259.068380 259.024018 258.825627 258.537644 258.229507 257.836581 257.575915 257.526741 257.760957 258.339753 259.310559 260.704421 262.533930 264.791776 267.450001 271.018980 274.825131 278.736791 282.612458 286.306691 289.676210 292.585995 294.915129 296.562196 297.450001 296.813514 295.411835 293.316595 290.624456 287.452765 283.934496 280.212679 276.434527 272.745470 269.283331 266.693094 264.514714 262.791538 261.547533 260.787481 260.497841 260.648219 261.193372 262.075677 263.227951 264.477161 265.856202 267.295633 268.727748 270.089131 271.323025 272.381446 273.226965 273.834107 274.190315 274.090330 273.771279 273.277088 272.661501 271.985611 271.315122 270.717460 270.258819 270.001265 269.999998 270.604405 271.519059 272.740994 274.256349 276.041206 278.062763 280.280779 282.649238 285.118156 287.635468 289.905795 292.142836 294.318633 296.407263 298.384903 300.229822 301.922296 303.444487 304.780303 305.915255 307.042671 307.926999 308.541616 308.863723 308.875526 308.565335 307.928542 306.968420 305.696715 304.133987 302.108805 299.877223 297.501510 295.048949 292.589692 290.194495 287.932411 285.868511 284.061717 282.562813 281.558514 280.919521 280.651523 280.748885 281.195109 281.963605 283.018759 284.317255 285.809607 287.441859 289.180384 290.943760 292.673611 294.314568 295.816130 297.134364 298.233374 299.086520 299.677317 300.000000 299.865640 299.500132 298.945244 298.249953 297.468206 296.656515 295.871484 295.167350 294.593640 294.193011 294.257774 294.530894 295.004003 295.659597 296.472113 297.409306 298.433840 299.505050 300.580801 301.619366 302.395657 303.076243 303.645742 304.093352 304.412950 304.603032 304.666483 304.610220 304.444699 304.183334 303.919521 303.585810 303.194268 302.758063 302.291154 301.807974 301.323112 300.850992 300.405563 300.000000 299.606294 299.278707 299.029732 298.869673 298.806278 298.844433 298.985937 299.229362 299.570015 300.000000 300.575965 301.211023 301.883609 302.570933 303.249862 303.897809 304.493609 305.018351 305.456131 305.794703 305.922814 305.948843 305.882293 305.736313 305.527033 305.272807 304.993387 304.709060 304.439783 304.204356 304.137767 304.126019 304.170754 304.271341 304.425193 304.628138 304.874856 305.159324 305.475282 305.816667 306.048647 306.307046 306.598854 306.930960 307.309579 307.739662 308.224343 308.764433 309.357992 310.000001 310.820958 311.658598 312.486930 313.278505 314.005517 314.640937 315.159642 315.539506 315.762412 315.815127 315.557530 315.132085 314.554328 313.844824 313.028357 312.132981 311.188968 310.227690 309.280477 308.377484 307.614658 306.942359 306.375825 305.926323 305.600938 305.402498 305.329641 305.377007 305.535554 305.792989 306.156655 306.585588 307.059316 307.556808 308.057324 308.541251 308.990885 309.391153 309.730224 310.000001 310.086098 310.108315 310.080127 310.017988 309.940469 309.867316 309.818473 309.813106 309.868660 310.000001 310.361468 310.805626 311.324271 311.906171 312.537717 313.203668 313.887953 314.574498 315.248043 315.894911 316.339108 316.750694 317.137572 317.509385 317.876812 318.250817 318.641887 319.059288 319.510378 320.000002 320.726732 321.475780 322.226393 322.956488 323.643818 324.267170 324.807529 325.249181 325.580678 325.795647 325.596202 325.309703 324.971424 324.619280 324.291847 324.026350 323.856670 323.811486 323.912616 324.173624 325.006470 325.963394 326.995908 328.050141 329.069590 329.998011 330.782317 331.375387 331.738648 331.844336 331.194872 330.312705 329.249915 328.067963 326.834745 325.621388 324.498896 323.534791 322.789882 322.315273 322.586546 323.153387 323.989402 325.056309 326.305877 327.682216 329.124352 330.568958 331.953151 333.217247 334.014355 334.617728 335.014980 335.202021 335.182744 334.968428 334.576893 334.031441 333.359638 332.591976 331.854994 331.077363 330.282622 329.492997 328.728701 328.007340 327.343410 326.747933 326.228213 325.787729 325.515996 325.312360 325.162207 325.048895 324.954746 324.862057 324.754089 324.615999 324.435662 324.204357 323.692312 323.142810 322.577659 322.020386 321.494749 321.023207 320.625408 320.316765 320.107184 320.000002 320.249915 320.564139 320.902118 321.218434 321.464667 321.591430 321.550478 321.296833 320.790826 320.000002 318.720648 317.135769 315.257631 313.108339 310.719197 308.129786 295.778075 283.426363 271.074652 258.722941 246.371230 234.019519 221.667808 209.316096 196.964385 182.967168 181.669421 180.738346 180.182551 179.999998 180.301191 180.929732 181.842965 182.990843 184.317809 185.764853 187.271667 188.778826 190.229924 191.573604 192.649