New Transformer.COMMONWEALTH_RET_01311205 Phases=3 Windings=2 XHL=0.1 %LoadLoss=0.001 Buses=[COMMONWEALTH_RET_01311205.1.2.3 COMMONWEALTH_RET_01311205_reg.1.2.3] kVs=[ 7.19955785679463   7.19955785679463 ]

New RegControl.COMMONWEALTH_RET_01311205 Transformer=COMMONWEALTH_RET_01311205 Winding=2 bus=COMMONWEALTH_RET_01311205.1 Vreg= 122.98315227577 Band= 2 PTratio= 59.9963154732886  CTPrim= 100  R= 0  X= 0

!Vreg= 122.98315227577


